compound_45
  GFN2-xTB geometry (ORCA XTB2, DDCOSMO(water))

 49 55  0  0  0  0  0  0  0  0999 V2000
   -0.9627   -0.7257   -1.9493 C   0  0  0  0  0  0  0  0  0  0  0  0
   -1.0069   -0.1821   -0.6760 C   0  0  0  0  0  0  0  0  0  0  0  0
   -0.0137   -0.5427    0.2201 C   0  0  0  0  0  0  0  0  0  0  0  0
    1.0513   -1.3673   -0.1402 C   0  0  0  0  0  0  0  0  0  0  0  0
    1.1819   -1.7646   -1.5002 C   0  0  0  0  0  0  0  0  0  0  0  0
    0.1242   -1.5225   -2.3714 C   0  0  0  0  0  0  0  0  0  0  0  0
    4.7996   -3.8356   -0.0380 H   0  0  0  0  0  0  0  0  0  0  0  0
    5.7821   -4.2155   -2.2694 H   0  0  0  0  0  0  0  0  0  0  0  0
    3.3218   -3.3678    4.6177 H   0  0  0  0  0  0  0  0  0  0  0  0
    4.5555   -3.3636   -4.2829 H   0  0  0  0  0  0  0  0  0  0  0  0
    0.6825   -4.4831    3.5442 H   0  0  0  0  0  0  0  0  0  0  0  0
    2.8645   -5.0722    4.3985 H   0  0  0  0  0  0  0  0  0  0  0  0
    5.1830   -3.0701    3.7312 H   0  0  0  0  0  0  0  0  0  0  0  0
    5.8915   -3.7774    2.2824 H   0  0  0  0  0  0  0  0  0  0  0  0
    0.9362   -3.4630    4.9802 H   0  0  0  0  0  0  0  0  0  0  0  0
    1.4850   -0.9864    4.8696 H   0  0  0  0  0  0  0  0  0  0  0  0
    2.4313   -2.4455   -1.8169 C   0  0  0  0  0  0  0  0  0  0  0  0
    3.1320   -2.8554   -0.7376 N   0  0  0  0  0  0  0  0  0  0  0  0
    5.5735   -1.8470    0.9694 H   0  0  0  0  0  0  0  0  0  0  0  0
    2.3825   -2.2323   -3.9446 H   0  0  0  0  0  0  0  0  0  0  0  0
    4.2927   -3.4827   -0.9267 C   0  0  0  0  0  0  0  0  0  0  0  0
    4.8411   -3.7011   -2.1738 C   0  0  0  0  0  0  0  0  0  0  0  0
    4.1580   -3.2358   -3.2893 C   0  0  0  0  0  0  0  0  0  0  0  0
    2.9448   -2.6011   -3.1044 C   0  0  0  0  0  0  0  0  0  0  0  0
   -0.2448   -2.0862   -3.6766 C   0  0  0  0  0  0  0  0  0  0  0  0
   -1.4470   -1.4994   -4.0185 N   0  0  0  0  0  0  0  0  0  0  0  0
   -1.9637   -0.7046   -3.0000 C   0  0  0  0  0  0  0  0  0  0  0  0
   -3.0502   -0.1521   -3.0501 O   0  0  0  0  0  0  0  0  0  0  0  0
    0.2973   -2.9427   -4.3591 O   0  0  0  0  0  0  0  0  0  0  0  0
   -1.9675   -1.7557   -4.8443 H   0  0  0  0  0  0  0  0  0  0  0  0
    2.1827   -2.5636    1.0041 Ru  0  0  0  0  0  0  0  0  0  0  0  0
   -1.8429    0.4373   -0.3872 H   0  0  0  0  0  0  0  0  0  0  0  0
    0.8809   -4.0983    0.3825 N   0  0  0  0  0  0  0  0  0  0  0  0
    3.5978   -0.8705    1.7490 S   0  0  0  0  0  0  0  0  0  0  0  0
    3.1406   -0.6266    3.5338 C   0  0  0  0  0  0  0  0  0  0  0  0
    1.6689   -0.8272    3.8086 C   0  0  0  0  0  0  0  0  0  0  0  0
    0.8603   -2.2402    2.9222 S   0  0  0  0  0  0  0  0  0  0  0  0
    1.2944   -3.6863    3.9758 C   0  0  0  0  0  0  0  0  0  0  0  0
    2.7576   -4.0621    4.0025 C   0  0  0  0  0  0  0  0  0  0  0  0
    3.5348   -4.1118    2.3216 S   0  0  0  0  0  0  0  0  0  0  0  0
    5.0900   -3.1387    2.6513 C   0  0  0  0  0  0  0  0  0  0  0  0
    5.1825   -1.7776    1.9843 C   0  0  0  0  0  0  0  0  0  0  0  0
    5.8255   -1.1168    2.5650 H   0  0  0  0  0  0  0  0  0  0  0  0
    3.4150    0.4045    3.7549 H   0  0  0  0  0  0  0  0  0  0  0  0
    3.7575   -1.2990    4.1194 H   0  0  0  0  0  0  0  0  0  0  0  0
    1.0874    0.0286    3.4667 H   0  0  0  0  0  0  0  0  0  0  0  0
   -0.0986   -0.1953    1.2412 H   0  0  0  0  0  0  0  0  0  0  0  0
    0.1065   -4.4135   -0.4342 C   0  0  0  0  0  0  0  0  0  0  0  0
   -0.9639   -4.8910   -1.5290 S   0  0  0  0  0  0  0  0  0  0  0  0
  1 27  1  0  0  0  0
  5 17  1  0  0  0  0
  6 25  1  0  0  0  0
 21 22  4  0  0  0  0
 23 24  4  0  0  0  0
  1  2  4  0  0  0  0
  2  3  4  0  0  0  0
 22 23  4  0  0  0  0
  5  6  4  0  0  0  0
  3  4  4  0  0  0  0
 17 24  4  0  0  0  0
 18 21  4  0  0  0  0
 35 36  1  0  0  0  0
 38 39  1  0  0  0  0
 41 42  1  0  0  0  0
  1  6  4  0  0  0  0
 17 18  4  0  0  0  0
 25 26  1  0  0  0  0
  4  5  4  0  0  0  0
 26 27  1  0  0  0  0
 20 24  1  0  0  0  0
  8 22  1  0  0  0  0
 10 23  1  0  0  0  0
  2 32  1  0  0  0  0
 26 30  1  0  0  0  0
  3 47  1  0  0  0  0
  7 21  1  0  0  0  0
 35 45  1  0  0  0  0
  9 39  1  0  0  0  0
 13 41  1  0  0  0  0
 37 38  1  0  0  0  0
 34 42  1  0  0  0  0
 16 36  1  0  0  0  0
 14 41  1  0  0  0  0
 15 38  1  0  0  0  0
 42 43  1  0  0  0  0
 35 44  1  0  0  0  0
 36 46  1  0  0  0  0
 19 42  1  0  0  0  0
 12 39  1  0  0  0  0
 11 38  1  0  0  0  0
 39 40  1  0  0  0  0
 36 37  1  0  0  0  0
 34 35  1  0  0  0  0
 40 41  1  0  0  0  0
 33 48  2  0  0  0  0
 27 28  2  0  0  0  0
 25 29  2  0  0  0  0
 48 49  2  0  0  0  0
 31 33  1  0  0  0  0
 31  4  1  0  0  0  0
 31 18  1  0  0  0  0
 31 37  1  0  0  0  0
 31 40  1  0  0  0  0
 31 34  1  0  0  0  0
M  END
$$$$
