compound_106
  GFN2-xTB geometry (ORCA XTB2, DDCOSMO(water))

 41 47  0  0  0  0  0  0  0  0999 V2000
    9.7676   -3.8787   -0.4303 Ru  0  0  0  0  0  0  0  0  0  0  0  0
   11.7510   -4.2165   -1.5514 C   0  0  0  0  0  0  0  0  0  0  0  0
   10.6733   -4.5812   -2.3766 C   0  0  0  0  0  0  0  0  0  0  0  0
    9.7254   -5.5628   -1.9622 C   0  0  0  0  0  0  0  0  0  0  0  0
    9.8942   -6.1284   -0.6786 C   0  0  0  0  0  0  0  0  0  0  0  0
   10.9999   -5.7878    0.1411 C   0  0  0  0  0  0  0  0  0  0  0  0
   11.9478   -4.8438   -0.2890 C   0  0  0  0  0  0  0  0  0  0  0  0
    6.9924   -3.4040    0.6224 N   0  0  0  0  0  0  0  0  0  0  0  0
    8.5987   -5.3365   -3.7428 H   0  0  0  0  0  0  0  0  0  0  0  0
    5.9580   -3.5770    1.4690 C   0  0  0  0  0  0  0  0  0  0  0  0
   11.1495   -6.3084    1.0798 H   0  0  0  0  0  0  0  0  0  0  0  0
    4.7581   -2.9599    1.2568 C   0  0  0  0  0  0  0  0  0  0  0  0
    9.0725   -7.4186   -3.4652 C   0  0  0  0  0  0  0  0  0  0  0  0
    8.1182   -4.0705    0.8926 O   0  0  0  0  0  0  0  0  0  0  0  0
   10.0391   -7.3538   -3.9578 H   0  0  0  0  0  0  0  0  0  0  0  0
   13.2268   -5.1598    1.3997 H   0  0  0  0  0  0  0  0  0  0  0  0
    9.2173   -6.9048   -0.3414 H   0  0  0  0  0  0  0  0  0  0  0  0
   10.5951   -4.1579   -3.3737 H   0  0  0  0  0  0  0  0  0  0  0  0
   13.1668   -4.5290    0.5174 C   0  0  0  0  0  0  0  0  0  0  0  0
   12.4981   -3.5188   -1.9138 H   0  0  0  0  0  0  0  0  0  0  0  0
    8.2297   -2.4036   -1.5152 S   0  0  0  0  0  0  0  0  0  0  0  0
    8.3347   -7.7588   -4.1856 H   0  0  0  0  0  0  0  0  0  0  0  0
    8.6587   -6.0494   -2.9141 C   0  0  0  0  0  0  0  0  0  0  0  0
    9.1390   -8.1474   -2.6618 H   0  0  0  0  0  0  0  0  0  0  0  0
   13.1394   -3.4868    0.8405 H   0  0  0  0  0  0  0  0  0  0  0  0
   10.4411   -2.0376    0.9891 Cl  0  0  0  0  0  0  0  0  0  0  0  0
    3.9529   -3.1214    1.9532 H   0  0  0  0  0  0  0  0  0  0  0  0
    5.6088   -1.3421   -1.5834 H   0  0  0  0  0  0  0  0  0  0  0  0
    6.8759   -2.6030   -0.4596 C   0  0  0  0  0  0  0  0  0  0  0  0
    5.6606   -1.9647   -0.7056 C   0  0  0  0  0  0  0  0  0  0  0  0
    6.1644   -4.2314    2.3013 H   0  0  0  0  0  0  0  0  0  0  0  0
    4.5817   -2.1264    0.1408 C   0  0  0  0  0  0  0  0  0  0  0  0
   14.0580   -4.6653   -0.0923 H   0  0  0  0  0  0  0  0  0  0  0  0
    7.2833   -6.1176   -2.2494 C   0  0  0  0  0  0  0  0  0  0  0  0
    7.2417   -6.9032   -1.5005 H   0  0  0  0  0  0  0  0  0  0  0  0
    6.5224   -6.3151   -2.9982 H   0  0  0  0  0  0  0  0  0  0  0  0
    7.0536   -5.1648   -1.7703 H   0  0  0  0  0  0  0  0  0  0  0  0
    3.2776   -1.4551   -0.1059 C   0  0  0  0  0  0  0  0  0  0  0  0
    3.0187   -0.8275    0.7442 H   0  0  0  0  0  0  0  0  0  0  0  0
    2.4938   -2.2019   -0.2134 H   0  0  0  0  0  0  0  0  0  0  0  0
    3.3172   -0.8454   -1.0021 H   0  0  0  0  0  0  0  0  0  0  0  0
 10 12  2  0  0  0  0
 32 38  1  0  0  0  0
 30 32  2  0  0  0  0
  8 10  1  0  0  0  0
  7 19  1  0  0  0  0
  8 29  1  0  0  0  0
 29 30  1  0  0  0  0
  4 23  1  0  0  0  0
  8 14  1  0  0  0  0
 12 32  1  0  0  0  0
  6  7  4  0  0  0  0
  2  3  4  0  0  0  0
  4  5  4  0  0  0  0
 23 34  1  0  0  0  0
  5  6  4  0  0  0  0
 13 23  1  0  0  0  0
  2  7  4  0  0  0  0
  3  4  4  0  0  0  0
 12 27  1  0  0  0  0
 28 30  1  0  0  0  0
 10 31  1  0  0  0  0
  6 11  1  0  0  0  0
  5 17  1  0  0  0  0
 38 41  1  0  0  0  0
  2 20  1  0  0  0  0
 34 36  1  0  0  0  0
 13 22  1  0  0  0  0
  3 18  1  0  0  0  0
 34 35  1  0  0  0  0
 16 19  1  0  0  0  0
 13 24  1  0  0  0  0
 13 15  1  0  0  0  0
 38 40  1  0  0  0  0
 38 39  1  0  0  0  0
 19 33  1  0  0  0  0
 34 37  1  0  0  0  0
 19 25  1  0  0  0  0
  9 23  1  0  0  0  0
 21 29  2  0  0  0  0
  1  4  1  0  0  0  0
  1  5  1  0  0  0  0
  1 14  1  0  0  0  0
  1 21  1  0  0  0  0
  1  2  1  0  0  0  0
  1  3  1  0  0  0  0
  1  6  1  0  0  0  0
  1 26  1  0  0  0  0
M  END
$$$$
