compound_46
  GFN2-xTB geometry (ORCA XTB2, DDCOSMO(water))

 49 55  0  0  0  0  0  0  0  0999 V2000
   -0.9441   -0.7239   -1.9692 C   0  0  0  0  0  0  0  0  0  0  0  0
   -1.1063   -0.3770   -0.6400 C   0  0  0  0  0  0  0  0  0  0  0  0
   -0.1770   -0.8523    0.2701 C   0  0  0  0  0  0  0  0  0  0  0  0
    0.9266   -1.6084   -0.1205 C   0  0  0  0  0  0  0  0  0  0  0  0
    1.1557   -1.8392   -1.5057 C   0  0  0  0  0  0  0  0  0  0  0  0
    0.1721   -1.4594   -2.4158 C   0  0  0  0  0  0  0  0  0  0  0  0
    4.6302   -4.1062    0.0080 H   0  0  0  0  0  0  0  0  0  0  0  0
    5.7454   -4.3518   -2.1794 H   0  0  0  0  0  0  0  0  0  0  0  0
    3.4862   -3.2559    4.6772 H   0  0  0  0  0  0  0  0  0  0  0  0
    4.6858   -3.2887   -4.1901 H   0  0  0  0  0  0  0  0  0  0  0  0
    0.8509   -4.5351    3.7888 H   0  0  0  0  0  0  0  0  0  0  0  0
    3.0884   -4.9861    4.5591 H   0  0  0  0  0  0  0  0  0  0  0  0
    5.2292   -2.8235    3.6541 H   0  0  0  0  0  0  0  0  0  0  0  0
    5.9473   -3.6393    2.2650 H   0  0  0  0  0  0  0  0  0  0  0  0
    1.1162   -3.4120    5.1461 H   0  0  0  0  0  0  0  0  0  0  0  0
    1.5851   -0.9268    4.8368 H   0  0  0  0  0  0  0  0  0  0  0  0
    2.4233   -2.5025   -1.8025 C   0  0  0  0  0  0  0  0  0  0  0  0
    3.0436   -3.0181   -0.7183 N   0  0  0  0  0  0  0  0  0  0  0  0
    5.4218   -1.9041    0.7482 H   0  0  0  0  0  0  0  0  0  0  0  0
    2.5306   -2.1202   -3.9037 H   0  0  0  0  0  0  0  0  0  0  0  0
    4.1944   -3.6691   -0.8822 C   0  0  0  0  0  0  0  0  0  0  0  0
    4.8175   -3.8110   -2.1055 C   0  0  0  0  0  0  0  0  0  0  0  0
    4.2260   -3.2297   -3.2174 C   0  0  0  0  0  0  0  0  0  0  0  0
    3.0208   -2.5715   -3.0602 C   0  0  0  0  0  0  0  0  0  0  0  0
   -0.0709   -1.7700   -3.8374 C   0  0  0  0  0  0  0  0  0  0  0  0
   -1.2407   -1.1209   -4.1749 N   0  0  0  0  0  0  0  0  0  0  0  0
   -1.8441   -0.4986   -3.0922 C   0  0  0  0  0  0  0  0  0  0  0  0
   -2.9098    0.0869   -3.1397 O   0  0  0  0  0  0  0  0  0  0  0  0
    0.5463   -2.4725   -4.6171 O   0  0  0  0  0  0  0  0  0  0  0  0
   -1.6698   -1.2059   -5.0847 H   0  0  0  0  0  0  0  0  0  0  0  0
    2.1152   -2.7269    1.0497 Ru  0  0  0  0  0  0  0  0  0  0  0  0
   -1.9669    0.1984   -0.3341 H   0  0  0  0  0  0  0  0  0  0  0  0
    0.5958   -4.8666    0.5562 Se  0  0  0  0  0  0  0  0  0  0  0  0
    3.4672   -0.9169    1.5752 S   0  0  0  0  0  0  0  0  0  0  0  0
    3.1050   -0.5298    3.3554 C   0  0  0  0  0  0  0  0  0  0  0  0
    1.6773   -0.8183    3.7578 C   0  0  0  0  0  0  0  0  0  0  0  0
    0.9034   -2.3328    3.0187 S   0  0  0  0  0  0  0  0  0  0  0  0
    1.4447   -3.6842    4.1443 C   0  0  0  0  0  0  0  0  0  0  0  0
    2.9218   -4.0004    4.1241 C   0  0  0  0  0  0  0  0  0  0  0  0
    3.6131   -4.1014    2.4104 S   0  0  0  0  0  0  0  0  0  0  0  0
    5.1175   -3.0136    2.5911 C   0  0  0  0  0  0  0  0  0  0  0  0
    5.1045   -1.7341    1.7774 C   0  0  0  0  0  0  0  0  0  0  0  0
    5.7592   -0.9914    2.2329 H   0  0  0  0  0  0  0  0  0  0  0  0
    3.2980    0.5387    3.4482 H   0  0  0  0  0  0  0  0  0  0  0  0
    3.8228   -1.0771    3.9560 H   0  0  0  0  0  0  0  0  0  0  0  0
    1.0090   -0.0289    3.4144 H   0  0  0  0  0  0  0  0  0  0  0  0
   -0.3381   -0.6475    1.3204 H   0  0  0  0  0  0  0  0  0  0  0  0
   -0.2275   -4.8134   -0.9999 C   0  0  0  0  0  0  0  0  0  0  0  0
   -0.7912   -4.8455   -2.0057 N   0  0  0  0  0  0  0  0  0  0  0  0
  1 27  1  0  0  0  0
  5 17  1  0  0  0  0
  6 25  1  0  0  0  0
 21 22  4  0  0  0  0
 23 24  4  0  0  0  0
  1  2  4  0  0  0  0
  2  3  4  0  0  0  0
 22 23  4  0  0  0  0
  5  6  4  0  0  0  0
  3  4  4  0  0  0  0
 17 24  4  0  0  0  0
 18 21  4  0  0  0  0
 38 39  1  0  0  0  0
 35 36  1  0  0  0  0
 41 42  1  0  0  0  0
  1  6  4  0  0  0  0
 17 18  4  0  0  0  0
 25 26  1  0  0  0  0
  4  5  4  0  0  0  0
 26 27  1  0  0  0  0
 20 24  1  0  0  0  0
  8 22  1  0  0  0  0
 10 23  1  0  0  0  0
  2 32  1  0  0  0  0
 26 30  1  0  0  0  0
  3 47  1  0  0  0  0
  7 21  1  0  0  0  0
 35 45  1  0  0  0  0
 13 41  1  0  0  0  0
  9 39  1  0  0  0  0
 37 38  1  0  0  0  0
 16 36  1  0  0  0  0
 34 42  1  0  0  0  0
 15 38  1  0  0  0  0
 14 41  1  0  0  0  0
 35 44  1  0  0  0  0
 36 46  1  0  0  0  0
 42 43  1  0  0  0  0
 12 39  1  0  0  0  0
 19 42  1  0  0  0  0
 39 40  1  0  0  0  0
 36 37  1  0  0  0  0
 11 38  1  0  0  0  0
 34 35  1  0  0  0  0
 40 41  1  0  0  0  0
 48 49  2  0  0  0  0
 27 28  2  0  0  0  0
 25 29  2  0  0  0  0
 33 48  2  0  0  0  0
 31 33  1  0  0  0  0
 31  4  1  0  0  0  0
 31 18  1  0  0  0  0
 31 37  1  0  0  0  0
 31 40  1  0  0  0  0
 31 34  1  0  0  0  0
M  END
$$$$
