compound_21
  GFN2-xTB geometry (ORCA XTB2, DDCOSMO(water))

 44 54  0  0  0  0  0  0  0  0999 V2000
   -0.1963   -0.3297   -0.9140 C   0  0  0  0  0  0  0  0  0  0  0  0
   -1.2419   -0.8112   -0.0826 C   0  0  0  0  0  0  0  0  0  0  0  0
   -0.9780   -2.0098    0.6266 C   0  0  0  0  0  0  0  0  0  0  0  0
    0.2688   -2.6407    0.4739 C   0  0  0  0  0  0  0  0  0  0  0  0
    1.3147   -2.1582   -0.3690 C   0  0  0  0  0  0  0  0  0  0  0  0
    1.0388   -0.9819   -1.0523 C   0  0  0  0  0  0  0  0  0  0  0  0
    2.2390   -5.9348    1.7503 H   0  0  0  0  0  0  0  0  0  0  0  0
    4.5107   -6.1539    0.7923 H   0  0  0  0  0  0  0  0  0  0  0  0
   -3.7379   -2.5503    2.2742 H   0  0  0  0  0  0  0  0  0  0  0  0
   -3.0265   -3.9877    4.6266 H   0  0  0  0  0  0  0  0  0  0  0  0
   -2.5084   -0.2371    0.1159 C   0  0  0  0  0  0  0  0  0  0  0  0
   -3.3927   -0.8673    0.9644 C   0  0  0  0  0  0  0  0  0  0  0  0
   -3.0386   -2.0520    1.6177 C   0  0  0  0  0  0  0  0  0  0  0  0
   -1.8523   -2.6144    1.4585 N   0  0  0  0  0  0  0  0  0  0  0  0
   -2.7642    0.6765   -0.3976 H   0  0  0  0  0  0  0  0  0  0  0  0
   -4.3725   -0.4532    1.1350 H   0  0  0  0  0  0  0  0  0  0  0  0
    2.3580   -3.1274   -0.2096 C   0  0  0  0  0  0  0  0  0  0  0  0
    1.8511   -4.1014    0.7055 C   0  0  0  0  0  0  0  0  0  0  0  0
    0.5784   -3.7703    1.1122 N   0  0  0  0  0  0  0  0  0  0  0  0
    4.0283   -2.5292   -1.4322 H   0  0  0  0  0  0  0  0  0  0  0  0
    2.6262   -5.1945    1.0679 C   0  0  0  0  0  0  0  0  0  0  0  0
    3.8897   -5.3106    0.5272 C   0  0  0  0  0  0  0  0  0  0  0  0
    4.3943   -4.3568   -0.3666 C   0  0  0  0  0  0  0  0  0  0  0  0
    3.6326   -3.2581   -0.7416 C   0  0  0  0  0  0  0  0  0  0  0  0
    1.8621   -0.1924   -1.9964 C   0  0  0  0  0  0  0  0  0  0  0  0
    1.0773    0.8729   -2.3631 N   0  0  0  0  0  0  0  0  0  0  0  0
   -0.1790    0.8567   -1.7523 C   0  0  0  0  0  0  0  0  0  0  0  0
   -1.0299    1.7066   -1.9404 O   0  0  0  0  0  0  0  0  0  0  0  0
    2.9921   -0.3960   -2.3914 O   0  0  0  0  0  0  0  0  0  0  0  0
    1.3713    1.5924   -3.0068 H   0  0  0  0  0  0  0  0  0  0  0  0
   -1.0150   -4.3167    2.3588 Ru  0  0  0  0  0  0  0  0  0  0  0  0
   -1.7253   -5.3879    1.0487 C   0  0  0  0  0  0  0  0  0  0  0  0
   -2.1720   -6.0701    0.2307 O   0  0  0  0  0  0  0  0  0  0  0  0
    0.2744   -4.1472    4.2162 C   0  0  0  0  0  0  0  0  0  0  0  0
   -0.8845   -3.3755    4.3991 C   0  0  0  0  0  0  0  0  0  0  0  0
   -2.0169   -4.2507    4.3448 C   0  0  0  0  0  0  0  0  0  0  0  0
   -1.5312   -5.5710    4.1517 C   0  0  0  0  0  0  0  0  0  0  0  0
   -0.1117   -5.5083    4.0265 C   0  0  0  0  0  0  0  0  0  0  0  0
   -0.9108   -2.3338    4.6909 H   0  0  0  0  0  0  0  0  0  0  0  0
   -2.1197   -6.4781    4.2045 H   0  0  0  0  0  0  0  0  0  0  0  0
    0.5572   -6.3570    4.0336 H   0  0  0  0  0  0  0  0  0  0  0  0
    1.2932   -3.7937    4.3040 H   0  0  0  0  0  0  0  0  0  0  0  0
    5.6421   -4.4783   -0.8927 O   0  0  0  0  0  0  0  0  0  0  0  0
    6.0566   -5.2890   -0.5597 H   0  0  0  0  0  0  0  0  0  0  0  0
  1  2  1  0  0  0  0
  5 17  1  0  0  0  0
  1 27  1  0  0  0  0
 23 43  1  0  0  0  0
  4 19  1  0  0  0  0
  6 25  1  0  0  0  0
 11 12  2  0  0  0  0
 21 22  4  0  0  0  0
 13 14  2  0  0  0  0
  3 14  1  0  0  0  0
 17 24  4  0  0  0  0
  5  6  1  0  0  0  0
 18 21  4  0  0  0  0
 23 24  4  0  0  0  0
 12 13  1  0  0  0  0
 22 23  4  0  0  0  0
  1  6  2  0  0  0  0
 34 35  4  0  0  0  0
  2 11  1  0  0  0  0
  3  4  1  0  0  0  0
 25 26  1  0  0  0  0
 18 19  1  0  0  0  0
  2  3  2  0  0  0  0
 36 37  4  0  0  0  0
 37 38  4  0  0  0  0
  4  5  2  0  0  0  0
 34 38  4  0  0  0  0
 17 18  4  0  0  0  0
 35 36  4  0  0  0  0
 26 27  1  0  0  0  0
 12 16  1  0  0  0  0
  7 21  1  0  0  0  0
 11 15  1  0  0  0  0
 20 24  1  0  0  0  0
 26 30  1  0  0  0  0
  8 22  1  0  0  0  0
 43 44  1  0  0  0  0
 38 41  1  0  0  0  0
 10 36  1  0  0  0  0
  9 13  1  0  0  0  0
 34 42  1  0  0  0  0
 35 39  1  0  0  0  0
 37 40  1  0  0  0  0
 32 33  2  0  0  0  0
 25 29  2  0  0  0  0
 27 28  2  0  0  0  0
 31 19  1  0  0  0  0
 31 32  1  0  0  0  0
 31 34  1  0  0  0  0
 31 36  1  0  0  0  0
 31 37  1  0  0  0  0
 31 38  1  0  0  0  0
 31 14  1  0  0  0  0
 31 35  1  0  0  0  0
M  END
$$$$
