compound_99
  GFN2-xTB geometry (ORCA XTB2, DDCOSMO(water))

 42 47  0  0  0  0  0  0  0  0999 V2000
    7.2038   -6.0082    0.5957 Ru  0  0  0  0  0  0  0  0  0  0  0  0
    8.6402   -4.3643   -0.3427 C   0  0  0  0  0  0  0  0  0  0  0  0
    8.2678   -5.3352   -1.3226 C   0  0  0  0  0  0  0  0  0  0  0  0
    8.5248   -6.6999   -1.1286 C   0  0  0  0  0  0  0  0  0  0  0  0
    9.1120   -7.1678    0.0851 C   0  0  0  0  0  0  0  0  0  0  0  0
    9.3950   -6.2096    1.0850 C   0  0  0  0  0  0  0  0  0  0  0  0
    9.1927   -4.8205    0.8621 C   0  0  0  0  0  0  0  0  0  0  0  0
    7.8759   -4.9909   -2.2743 H   0  0  0  0  0  0  0  0  0  0  0  0
    8.3327   -7.3966   -1.9357 H   0  0  0  0  0  0  0  0  0  0  0  0
    9.1072   -2.6582   -1.5171 H   0  0  0  0  0  0  0  0  0  0  0  0
    9.8805   -6.5300    2.0011 H   0  0  0  0  0  0  0  0  0  0  0  0
    9.5201   -4.1063    1.6089 H   0  0  0  0  0  0  0  0  0  0  0  0
    8.4992   -2.9072   -0.6486 C   0  0  0  0  0  0  0  0  0  0  0  0
    8.8076   -2.2977    0.1958 H   0  0  0  0  0  0  0  0  0  0  0  0
    7.4612   -2.6727   -0.8877 H   0  0  0  0  0  0  0  0  0  0  0  0
    9.5921   -8.5892    0.2559 C   0  0  0  0  0  0  0  0  0  0  0  0
    8.7558   -9.6210   -0.4987 C   0  0  0  0  0  0  0  0  0  0  0  0
   11.0544   -8.6399   -0.2106 C   0  0  0  0  0  0  0  0  0  0  0  0
    9.5558   -8.8288    1.3239 H   0  0  0  0  0  0  0  0  0  0  0  0
    9.0454  -10.6195   -0.1847 H   0  0  0  0  0  0  0  0  0  0  0  0
    8.9120   -9.5455   -1.5709 H   0  0  0  0  0  0  0  0  0  0  0  0
    7.6961   -9.4866   -0.2864 H   0  0  0  0  0  0  0  0  0  0  0  0
   11.1203   -8.3739   -1.2624 H   0  0  0  0  0  0  0  0  0  0  0  0
   11.4414   -9.6461   -0.0800 H   0  0  0  0  0  0  0  0  0  0  0  0
   11.6673   -7.9500    0.3629 H   0  0  0  0  0  0  0  0  0  0  0  0
    5.2065   -4.6656    0.2400 Cl  0  0  0  0  0  0  0  0  0  0  0  0
    5.8112   -6.9069    3.1078 N   0  0  0  0  0  0  0  0  0  0  0  0
    5.3058   -7.8548    2.3004 C   0  0  0  0  0  0  0  0  0  0  0  0
    4.4179   -8.8258    2.8262 C   0  0  0  0  0  0  0  0  0  0  0  0
    4.0832   -8.7695    4.1681 C   0  0  0  0  0  0  0  0  0  0  0  0
    4.6321   -7.7634    4.9605 C   0  0  0  0  0  0  0  0  0  0  0  0
    5.4889   -6.8458    4.4173 C   0  0  0  0  0  0  0  0  0  0  0  0
    6.6667   -5.9957    2.6507 O   0  0  0  0  0  0  0  0  0  0  0  0
    5.7418   -7.8990    0.6321 S   0  0  0  0  0  0  0  0  0  0  0  0
    3.4074   -9.4860    4.6008 H   0  0  0  0  0  0  0  0  0  0  0  0
    4.3860   -7.6981    6.0060 H   0  0  0  0  0  0  0  0  0  0  0  0
    5.9513   -6.0391    4.9611 H   0  0  0  0  0  0  0  0  0  0  0  0
    3.9861   -9.7240    1.9322 O   0  0  0  0  0  0  0  0  0  0  0  0
    3.1035  -10.7486    2.3754 C   0  0  0  0  0  0  0  0  0  0  0  0
    3.5764  -11.3591    3.1465 H   0  0  0  0  0  0  0  0  0  0  0  0
    2.9076  -11.3525    1.4931 H   0  0  0  0  0  0  0  0  0  0  0  0
    2.1696  -10.3237    2.7477 H   0  0  0  0  0  0  0  0  0  0  0  0
 29 38  1  0  0  0  0
 31 32  2  0  0  0  0
 27 28  1  0  0  0  0
 29 30  2  0  0  0  0
  2 13  1  0  0  0  0
 27 32  1  0  0  0  0
 30 31  1  0  0  0  0
 27 33  1  0  0  0  0
  5 16  1  0  0  0  0
  2  7  4  0  0  0  0
  3  4  4  0  0  0  0
  5  6  4  0  0  0  0
 16 17  1  0  0  0  0
 28 29  1  0  0  0  0
 38 39  1  0  0  0  0
  6  7  4  0  0  0  0
 16 18  1  0  0  0  0
  4  5  4  0  0  0  0
  2  3  4  0  0  0  0
 30 35  1  0  0  0  0
 31 36  1  0  0  0  0
 32 37  1  0  0  0  0
  4  9  1  0  0  0  0
  7 12  1  0  0  0  0
  6 11  1  0  0  0  0
  3  8  1  0  0  0  0
 18 24  1  0  0  0  0
 17 20  1  0  0  0  0
 13 14  1  0  0  0  0
 17 21  1  0  0  0  0
 18 25  1  0  0  0  0
 18 23  1  0  0  0  0
 39 41  1  0  0  0  0
 10 13  1  0  0  0  0
 17 22  1  0  0  0  0
 13 15  1  0  0  0  0
 39 40  1  0  0  0  0
 39 42  1  0  0  0  0
 16 19  1  0  0  0  0
 28 34  2  0  0  0  0
  1 34  1  0  0  0  0
  1 26  1  0  0  0  0
  1 33  1  0  0  0  0
  1  2  1  0  0  0  0
  1  3  1  0  0  0  0
  1  4  1  0  0  0  0
  1  5  1  0  0  0  0
M  END
$$$$
