compound_103
  GFN2-xTB geometry (ORCA XTB2, DDCOSMO(water))

 92100  0  0  0  0  0  0  0  0999 V2000
    8.7923   -5.6058    0.9636 Ru  0  0  0  0  0  0  0  0  0  0  0  0
   10.4474   -7.0018   -0.0304 C   0  0  0  0  0  0  0  0  0  0  0  0
    9.2509   -7.3097   -0.7103 C   0  0  0  0  0  0  0  0  0  0  0  0
    8.1340   -7.7051    0.0534 C   0  0  0  0  0  0  0  0  0  0  0  0
    8.2006   -7.8095    1.4611 C   0  0  0  0  0  0  0  0  0  0  0  0
    9.4361   -7.5204    2.0990 C   0  0  0  0  0  0  0  0  0  0  0  0
   10.5857   -7.1543    1.3667 C   0  0  0  0  0  0  0  0  0  0  0  0
    5.9287   -0.9025    1.8332 H   0  0  0  0  0  0  0  0  0  0  0  0
    7.2403   -8.0334   -0.4606 H   0  0  0  0  0  0  0  0  0  0  0  0
    2.0854   -6.5094   -0.6152 C   0  0  0  0  0  0  0  0  0  0  0  0
    9.5154   -7.7181    3.1612 H   0  0  0  0  0  0  0  0  0  0  0  0
    4.7266   -1.0377    0.5516 H   0  0  0  0  0  0  0  0  0  0  0  0
    6.4791   -7.0956    3.0833 C   0  0  0  0  0  0  0  0  0  0  0  0
    3.4707   -1.2418    2.5738 H   0  0  0  0  0  0  0  0  0  0  0  0
   13.1278   -7.6708    3.6693 H   0  0  0  0  0  0  0  0  0  0  0  0
    7.0388   -8.2914    2.3036 C   0  0  0  0  0  0  0  0  0  0  0  0
    1.3891   -6.0991   -1.7155 F   0  0  0  0  0  0  0  0  0  0  0  0
    1.0487   -7.8432    0.2087 P   0  0  0  0  0  0  0  0  0  0  0  0
    5.9310   -8.9651    1.4950 C   0  0  0  0  0  0  0  0  0  0  0  0
    0.3943   -8.7090   -0.7806 O   0  0  0  0  0  0  0  0  0  0  0  0
    0.0922   -7.0553    1.1969 O   0  0  0  0  0  0  0  0  0  0  0  0
   -0.7900   -6.8935    0.8515 H   0  0  0  0  0  0  0  0  0  0  0  0
    2.0359   -8.6148    1.1500 O   0  0  0  0  0  0  0  0  0  0  0  0
    9.2182   -7.3805   -2.2209 C   0  0  0  0  0  0  0  0  0  0  0  0
    3.1815   -7.1651   -1.1252 F   0  0  0  0  0  0  0  0  0  0  0  0
    9.9071   -3.6592    0.0436 Cl  0  0  0  0  0  0  0  0  0  0  0  0
    8.5280   -4.4613    2.5821 N   0  0  0  0  0  0  0  0  0  0  0  0
    7.6575   -3.4226    2.4967 C   0  0  0  0  0  0  0  0  0  0  0  0
    9.2798   -4.5793    3.6722 C   0  0  0  0  0  0  0  0  0  0  0  0
    7.5677   -2.4745    3.5152 C   0  0  0  0  0  0  0  0  0  0  0  0
    9.2338   -3.6796    4.7208 C   0  0  0  0  0  0  0  0  0  0  0  0
    8.3693   -2.5980    4.6343 C   0  0  0  0  0  0  0  0  0  0  0  0
    8.3145   -1.8693    5.4261 H   0  0  0  0  0  0  0  0  0  0  0  0
    9.9438   -5.4295    3.7151 H   0  0  0  0  0  0  0  0  0  0  0  0
    9.8645   -3.8267    5.5813 H   0  0  0  0  0  0  0  0  0  0  0  0
    6.8860   -1.6481    3.4373 H   0  0  0  0  0  0  0  0  0  0  0  0
    6.8753   -3.4889    1.2813 C   0  0  0  0  0  0  0  0  0  0  0  0
    7.1075   -4.5584    0.5107 N   0  0  0  0  0  0  0  0  0  0  0  0
    6.2672   -4.4742   -0.5645 C   0  0  0  0  0  0  0  0  0  0  0  0
    5.5054   -3.2786   -0.4189 C   0  0  0  0  0  0  0  0  0  0  0  0
    5.9182   -2.6867    0.7565 N   0  0  0  0  0  0  0  0  0  0  0  0
   11.5459   -7.0495    4.1031 H   0  0  0  0  0  0  0  0  0  0  0  0
   10.1282   -8.5166   -2.7006 C   0  0  0  0  0  0  0  0  0  0  0  0
    9.6166   -6.0524   -2.8670 C   0  0  0  0  0  0  0  0  0  0  0  0
    2.2538   -8.1567    1.9759 H   0  0  0  0  0  0  0  0  0  0  0  0
    5.2159   -1.5772    1.3618 C   0  0  0  0  0  0  0  0  0  0  0  0
    4.1508   -2.0672    2.3718 C   0  0  0  0  0  0  0  0  0  0  0  0
    3.4316   -3.2349    1.7641 C   0  0  0  0  0  0  0  0  0  0  0  0
    2.3812   -3.0588    0.8729 C   0  0  0  0  0  0  0  0  0  0  0  0
    1.9048   -4.1213    0.1258 C   0  0  0  0  0  0  0  0  0  0  0  0
    2.4965   -5.3707    0.2552 C   0  0  0  0  0  0  0  0  0  0  0  0
    3.4848   -5.5774    1.2101 C   0  0  0  0  0  0  0  0  0  0  0  0
    3.9345   -4.5152    1.9667 C   0  0  0  0  0  0  0  0  0  0  0  0
    1.9473   -2.0810    0.7331 H   0  0  0  0  0  0  0  0  0  0  0  0
    1.1111   -3.9740   -0.5908 H   0  0  0  0  0  0  0  0  0  0  0  0
    4.6276   -2.3747    3.3006 H   0  0  0  0  0  0  0  0  0  0  0  0
    3.9216   -6.5556    1.3278 H   0  0  0  0  0  0  0  0  0  0  0  0
    4.7041   -4.6728    2.7053 H   0  0  0  0  0  0  0  0  0  0  0  0
   11.3319   -6.7620   -0.6124 H   0  0  0  0  0  0  0  0  0  0  0  0
   11.9755   -7.0585    1.9685 C   0  0  0  0  0  0  0  0  0  0  0  0
   12.0816   -7.6494    3.3736 C   0  0  0  0  0  0  0  0  0  0  0  0
   12.4852   -5.6120    1.9590 C   0  0  0  0  0  0  0  0  0  0  0  0
    8.1976   -7.6188   -2.5361 H   0  0  0  0  0  0  0  0  0  0  0  0
    6.0617   -5.3510   -1.6229 C   0  0  0  0  0  0  0  0  0  0  0  0
    5.0743   -4.9764   -2.5084 C   0  0  0  0  0  0  0  0  0  0  0  0
    4.3258   -3.7666   -2.3803 C   0  0  0  0  0  0  0  0  0  0  0  0
    4.5405   -2.8888   -1.3318 C   0  0  0  0  0  0  0  0  0  0  0  0
    6.6284   -6.2548   -1.7432 H   0  0  0  0  0  0  0  0  0  0  0  0
    3.9686   -1.9820   -1.2532 H   0  0  0  0  0  0  0  0  0  0  0  0
    4.5757   -5.5793   -3.6317 N   0  0  0  0  0  0  0  0  0  0  0  0
    3.5923   -4.7722   -4.1043 C   0  0  0  0  0  0  0  0  0  0  0  0
    3.4161   -3.6893   -3.4091 N   0  0  0  0  0  0  0  0  0  0  0  0
    4.8458   -6.4768   -3.9973 H   0  0  0  0  0  0  0  0  0  0  0  0
    3.0195   -5.0128   -4.9785 H   0  0  0  0  0  0  0  0  0  0  0  0
    9.8371   -9.4585   -2.2416 H   0  0  0  0  0  0  0  0  0  0  0  0
   11.1678   -8.3167   -2.4528 H   0  0  0  0  0  0  0  0  0  0  0  0
   10.0512   -8.6189   -3.7799 H   0  0  0  0  0  0  0  0  0  0  0  0
   13.5214   -5.5801    2.2852 H   0  0  0  0  0  0  0  0  0  0  0  0
   11.8959   -4.9832    2.6220 H   0  0  0  0  0  0  0  0  0  0  0  0
   12.4331   -5.1782    0.9604 H   0  0  0  0  0  0  0  0  0  0  0  0
    9.4880   -6.1044   -3.9447 H   0  0  0  0  0  0  0  0  0  0  0  0
   10.6580   -5.8085   -2.6649 H   0  0  0  0  0  0  0  0  0  0  0  0
    9.0020   -5.2349   -2.4863 H   0  0  0  0  0  0  0  0  0  0  0  0
    5.4417   -8.2628    0.8243 H   0  0  0  0  0  0  0  0  0  0  0  0
    5.1800   -9.3648    2.1714 H   0  0  0  0  0  0  0  0  0  0  0  0
    6.3224   -9.7942    0.9095 H   0  0  0  0  0  0  0  0  0  0  0  0
    6.2297   -6.3017    2.3784 H   0  0  0  0  0  0  0  0  0  0  0  0
   11.7061   -8.6694    3.3939 H   0  0  0  0  0  0  0  0  0  0  0  0
   12.6317   -7.6409    1.3083 H   0  0  0  0  0  0  0  0  0  0  0  0
    7.2080   -6.7225    3.7983 H   0  0  0  0  0  0  0  0  0  0  0  0
    5.5845   -7.3892    3.6248 H   0  0  0  0  0  0  0  0  0  0  0  0
    7.4325   -9.0238    3.0171 H   0  0  0  0  0  0  0  0  0  0  0  0
 18 23  1  0  0  0  0
 18 21  1  0  0  0  0
 64 65  4  0  0  0  0
 52 53  4  0  0  0  0
 10 51  1  0  0  0  0
 10 17  1  0  0  0  0
 30 32  1  0  0  0  0
 29 31  1  0  0  0  0
 49 50  4  0  0  0  0
 66 67  4  0  0  0  0
 40 67  4  0  0  0  0
 31 32  2  0  0  0  0
 50 51  4  0  0  0  0
 48 49  4  0  0  0  0
 39 64  4  0  0  0  0
 51 52  4  0  0  0  0
 47 48  1  0  0  0  0
 48 53  4  0  0  0  0
 37 41  1  0  0  0  0
 10 25  1  0  0  0  0
 27 29  2  0  0  0  0
 70 71  1  0  0  0  0
 28 30  2  0  0  0  0
 27 28  1  0  0  0  0
  3 24  1  0  0  0  0
 37 38  2  0  0  0  0
  5 16  1  0  0  0  0
 38 39  1  0  0  0  0
 65 70  1  0  0  0  0
  7 60  1  0  0  0  0
  3  4  4  0  0  0  0
  2  3  4  0  0  0  0
  6  7  4  0  0  0  0
  2  7  4  0  0  0  0
 66 72  1  0  0  0  0
  4  5  4  0  0  0  0
 60 61  1  0  0  0  0
 16 19  1  0  0  0  0
 40 41  1  0  0  0  0
 24 44  1  0  0  0  0
  5  6  4  0  0  0  0
 24 43  1  0  0  0  0
 13 16  1  0  0  0  0
 60 62  1  0  0  0  0
 39 40  4  0  0  0  0
 65 66  4  0  0  0  0
 21 22  1  0  0  0  0
 71 74  1  0  0  0  0
 64 68  1  0  0  0  0
 30 36  1  0  0  0  0
 67 69  1  0  0  0  0
 46 47  1  0  0  0  0
 10 18  1  0  0  0  0
 70 73  1  0  0  0  0
 31 35  1  0  0  0  0
 32 33  1  0  0  0  0
 52 57  1  0  0  0  0
 53 58  1  0  0  0  0
 49 54  1  0  0  0  0
 50 55  1  0  0  0  0
 29 34  1  0  0  0  0
 23 45  1  0  0  0  0
  4  9  1  0  0  0  0
  6 11  1  0  0  0  0
 28 37  1  0  0  0  0
  2 59  1  0  0  0  0
 42 61  1  0  0  0  0
 13 91  1  0  0  0  0
 44 81  1  0  0  0  0
 62 78  1  0  0  0  0
 19 85  1  0  0  0  0
 43 77  1  0  0  0  0
 61 88  1  0  0  0  0
 13 90  1  0  0  0  0
 43 76  1  0  0  0  0
 62 79  1  0  0  0  0
 15 61  1  0  0  0  0
 43 75  1  0  0  0  0
 19 84  1  0  0  0  0
 19 86  1  0  0  0  0
 47 56  1  0  0  0  0
 14 47  1  0  0  0  0
 44 82  1  0  0  0  0
  8 46  1  0  0  0  0
 12 46  1  0  0  0  0
 62 80  1  0  0  0  0
 13 87  1  0  0  0  0
 44 83  1  0  0  0  0
 24 63  1  0  0  0  0
 16 92  1  0  0  0  0
 60 89  1  0  0  0  0
 41 46  1  0  0  0  0
 18 20  2  0  0  0  0
 71 72  2  0  0  0  0
  1  4  1  0  0  0  0
  1  6  1  0  0  0  0
  1 26  1  0  0  0  0
  1 27  1  0  0  0  0
  1 38  1  0  0  0  0
  1  2  1  0  0  0  0
M  END
$$$$
