compound_38
  GFN2-xTB geometry (ORCA XTB2, DDCOSMO(water))

 44 55  0  0  0  0  0  0  0  0999 V2000
   -0.2103   -0.2938   -1.0720 C   0  0  0  0  0  0  0  0  0  0  0  0
   -1.2591   -0.7192   -0.2158 C   0  0  0  0  0  0  0  0  0  0  0  0
   -0.9786   -1.8469    0.5946 C   0  0  0  0  0  0  0  0  0  0  0  0
    0.2795   -2.4596    0.5152 C   0  0  0  0  0  0  0  0  0  0  0  0
    1.3235   -2.0475   -0.3607 C   0  0  0  0  0  0  0  0  0  0  0  0
    1.0340   -0.9392   -1.1470 C   0  0  0  0  0  0  0  0  0  0  0  0
    2.2083   -5.7059    1.9837 H   0  0  0  0  0  0  0  0  0  0  0  0
    4.4663   -6.0083    1.0328 H   0  0  0  0  0  0  0  0  0  0  0  0
   -3.7692   -2.3697    2.1927 H   0  0  0  0  0  0  0  0  0  0  0  0
    5.3614   -4.4417   -0.6215 H   0  0  0  0  0  0  0  0  0  0  0  0
   -2.5496   -0.1774   -0.0938 C   0  0  0  0  0  0  0  0  0  0  0  0
   -3.4351   -0.7768    0.7750 C   0  0  0  0  0  0  0  0  0  0  0  0
   -3.0641   -1.9000    1.5222 C   0  0  0  0  0  0  0  0  0  0  0  0
   -1.8549   -2.4263    1.4399 N   0  0  0  0  0  0  0  0  0  0  0  0
   -2.8228    0.6841   -0.6827 H   0  0  0  0  0  0  0  0  0  0  0  0
   -4.4330   -0.3872    0.8885 H   0  0  0  0  0  0  0  0  0  0  0  0
    2.3576   -3.0132   -0.1325 C   0  0  0  0  0  0  0  0  0  0  0  0
    1.8434   -3.9195    0.8488 C   0  0  0  0  0  0  0  0  0  0  0  0
    0.5791   -3.5379    1.2421 N   0  0  0  0  0  0  0  0  0  0  0  0
    4.0122   -2.5107   -1.3966 H   0  0  0  0  0  0  0  0  0  0  0  0
    2.6036   -5.0039    1.2676 C   0  0  0  0  0  0  0  0  0  0  0  0
    3.8622   -5.1695    0.7233 C   0  0  0  0  0  0  0  0  0  0  0  0
    4.3728   -4.2795   -0.2212 C   0  0  0  0  0  0  0  0  0  0  0  0
    3.6303   -3.2006   -0.6585 C   0  0  0  0  0  0  0  0  0  0  0  0
    1.8443   -0.2380   -2.1682 C   0  0  0  0  0  0  0  0  0  0  0  0
    1.0478    0.7800   -2.6322 N   0  0  0  0  0  0  0  0  0  0  0  0
   -0.2093    0.8045   -2.0257 C   0  0  0  0  0  0  0  0  0  0  0  0
   -1.0734    1.6164   -2.2971 O   0  0  0  0  0  0  0  0  0  0  0  0
    2.9723   -0.4715   -2.5512 O   0  0  0  0  0  0  0  0  0  0  0  0
    1.3304    1.4320   -3.3489 H   0  0  0  0  0  0  0  0  0  0  0  0
   -1.1252   -4.1777    2.2432 Ru  0  0  0  0  0  0  0  0  0  0  0  0
   -1.7049   -5.1148    0.1005 Cl  0  0  0  0  0  0  0  0  0  0  0  0
   -2.2528   -2.7621    4.7025 H   0  0  0  0  0  0  0  0  0  0  0  0
    0.0342   -5.2098    3.9760 C   0  0  0  0  0  0  0  0  0  0  0  0
   -0.4679   -3.9508    4.3946 C   0  0  0  0  0  0  0  0  0  0  0  0
   -1.8541   -3.6881    4.3013 C   0  0  0  0  0  0  0  0  0  0  0  0
   -2.7416   -4.6845    3.8153 C   0  0  0  0  0  0  0  0  0  0  0  0
    1.0810   -5.4435    4.1281 H   0  0  0  0  0  0  0  0  0  0  0  0
    0.1928   -3.2371    4.8728 H   0  0  0  0  0  0  0  0  0  0  0  0
   -3.8124   -4.5275    3.8490 H   0  0  0  0  0  0  0  0  0  0  0  0
   -2.2237   -5.8988    3.3461 C   0  0  0  0  0  0  0  0  0  0  0  0
   -0.8289   -6.1683    3.4289 C   0  0  0  0  0  0  0  0  0  0  0  0
   -0.4557   -7.1459    3.1479 H   0  0  0  0  0  0  0  0  0  0  0  0
   -2.8936   -6.6749    2.9916 H   0  0  0  0  0  0  0  0  0  0  0  0
  1  2  1  0  0  0  0
  5 17  1  0  0  0  0
  1 27  1  0  0  0  0
  4 19  1  0  0  0  0
  6 25  1  0  0  0  0
 11 12  2  0  0  0  0
 23 24  4  0  0  0  0
 21 22  4  0  0  0  0
 13 14  2  0  0  0  0
  3 14  1  0  0  0  0
 18 21  4  0  0  0  0
  5  6  1  0  0  0  0
 17 24  4  0  0  0  0
 22 23  4  0  0  0  0
 12 13  1  0  0  0  0
 34 42  4  0  0  0  0
 37 41  4  0  0  0  0
  3  4  1  0  0  0  0
  1  6  2  0  0  0  0
  2 11  1  0  0  0  0
 25 26  1  0  0  0  0
 35 36  4  0  0  0  0
 18 19  1  0  0  0  0
  2  3  2  0  0  0  0
 34 35  4  0  0  0  0
 36 37  4  0  0  0  0
 41 42  4  0  0  0  0
  4  5  2  0  0  0  0
 17 18  4  0  0  0  0
 26 27  1  0  0  0  0
 12 16  1  0  0  0  0
  7 21  1  0  0  0  0
 11 15  1  0  0  0  0
 10 23  1  0  0  0  0
  8 22  1  0  0  0  0
 26 30  1  0  0  0  0
 20 24  1  0  0  0  0
  9 13  1  0  0  0  0
 37 40  1  0  0  0  0
 34 38  1  0  0  0  0
 42 43  1  0  0  0  0
 35 39  1  0  0  0  0
 41 44  1  0  0  0  0
 33 36  1  0  0  0  0
 25 29  2  0  0  0  0
 27 28  2  0  0  0  0
 31 19  1  0  0  0  0
 31 32  1  0  0  0  0
 31 41  1  0  0  0  0
 31 34  1  0  0  0  0
 31 35  1  0  0  0  0
 31 36  1  0  0  0  0
 31 37  1  0  0  0  0
 31 42  1  0  0  0  0
 31 14  1  0  0  0  0
M  END
$$$$
