compound_55
  GFN2-xTB geometry (ORCA XTB2, DDCOSMO(water))

 65 75  0  0  0  0  0  0  0  0999 V2000
    0.0153    0.4702    1.9444 Ru  0  0  0  0  0  0  0  0  0  0  0  0
    1.9859   -0.2497    1.2350 C   0  0  0  0  0  0  0  0  0  0  0  0
   -1.6499    0.0119    0.5448 C   0  0  0  0  0  0  0  0  0  0  0  0
    1.7219   -0.8226    2.5223 C   0  0  0  0  0  0  0  0  0  0  0  0
    2.0321    1.1776    1.4048 C   0  0  0  0  0  0  0  0  0  0  0  0
   -1.6187    1.4163    0.7749 C   0  0  0  0  0  0  0  0  0  0  0  0
   -1.9107   -0.6325    1.7851 C   0  0  0  0  0  0  0  0  0  0  0  0
    1.6220    0.2280    3.4677 C   0  0  0  0  0  0  0  0  0  0  0  0
    1.8189    1.4608    2.7809 C   0  0  0  0  0  0  0  0  0  0  0  0
   -1.8626    1.6395    2.1607 C   0  0  0  0  0  0  0  0  0  0  0  0
   -2.0418    0.3716    2.7843 C   0  0  0  0  0  0  0  0  0  0  0  0
   -2.3667    0.2091    3.8031 H   0  0  0  0  0  0  0  0  0  0  0  0
   -1.6164   -0.4729   -0.4216 H   0  0  0  0  0  0  0  0  0  0  0  0
    1.7526   -1.8842    2.7318 H   0  0  0  0  0  0  0  0  0  0  0  0
    2.3658    1.9007    0.6734 H   0  0  0  0  0  0  0  0  0  0  0  0
   -1.5754    2.1803    0.0109 H   0  0  0  0  0  0  0  0  0  0  0  0
   -2.1108   -1.6870    1.9182 H   0  0  0  0  0  0  0  0  0  0  0  0
    1.5517    0.1047    4.5394 H   0  0  0  0  0  0  0  0  0  0  0  0
    1.9321    2.4292    3.2491 H   0  0  0  0  0  0  0  0  0  0  0  0
   -2.0350    2.6007    2.6256 H   0  0  0  0  0  0  0  0  0  0  0  0
    2.5676   -2.2618    0.1225 O   0  0  0  0  0  0  0  0  0  0  0  0
    2.3319   -1.0494    0.0429 C   0  0  0  0  0  0  0  0  0  0  0  0
    2.3759   -0.3824   -1.1222 N   0  0  0  0  0  0  0  0  0  0  0  0
    2.7968   -0.9844   -2.3668 C   0  0  0  0  0  0  0  0  0  0  0  0
    4.3081   -0.8640   -2.5879 C   0  0  0  0  0  0  0  0  0  0  0  0
    4.7742    0.5897   -2.6352 C   0  0  0  0  0  0  0  0  0  0  0  0
    6.2638    0.6764   -2.9629 C   0  0  0  0  0  0  0  0  0  0  0  0
    6.7054    2.0476   -3.1669 N   0  0  0  0  0  0  0  0  0  0  0  0
    6.8149    2.7878   -1.9218 C   0  0  0  0  0  0  0  0  0  0  0  0
    7.1993    4.2348   -2.2081 C   0  0  0  0  0  0  0  0  0  0  0  0
    8.4675    4.2727   -2.9092 N   0  0  0  0  0  0  0  0  0  0  0  0
    8.3673    3.5486   -4.1571 C   0  0  0  0  0  0  0  0  0  0  0  0
    7.9823    2.1009   -3.8566 C   0  0  0  0  0  0  0  0  0  0  0  0
    2.2076    0.6108   -1.1259 H   0  0  0  0  0  0  0  0  0  0  0  0
    2.2584   -0.4958   -3.1794 H   0  0  0  0  0  0  0  0  0  0  0  0
    2.5204   -2.0420   -2.3303 H   0  0  0  0  0  0  0  0  0  0  0  0
    4.5565   -1.3634   -3.5249 H   0  0  0  0  0  0  0  0  0  0  0  0
    4.8230   -1.3914   -1.7803 H   0  0  0  0  0  0  0  0  0  0  0  0
    4.5808    1.0578   -1.6706 H   0  0  0  0  0  0  0  0  0  0  0  0
    4.2208    1.1319   -3.4022 H   0  0  0  0  0  0  0  0  0  0  0  0
    6.4436    0.1340   -3.8946 H   0  0  0  0  0  0  0  0  0  0  0  0
    6.8497    0.1777   -2.1687 H   0  0  0  0  0  0  0  0  0  0  0  0
    7.5759    2.3402   -1.2559 H   0  0  0  0  0  0  0  0  0  0  0  0
    5.8527    2.7729   -1.4113 H   0  0  0  0  0  0  0  0  0  0  0  0
    7.2836    4.7833   -1.2728 H   0  0  0  0  0  0  0  0  0  0  0  0
    6.4118    4.6947   -2.8266 H   0  0  0  0  0  0  0  0  0  0  0  0
    7.8957    1.5528   -4.7968 H   0  0  0  0  0  0  0  0  0  0  0  0
    9.3360    3.5582   -4.6580 H   0  0  0  0  0  0  0  0  0  0  0  0
    7.6062    3.9864   -4.8216 H   0  0  0  0  0  0  0  0  0  0  0  0
    8.7840    1.6384   -3.2522 H   0  0  0  0  0  0  0  0  0  0  0  0
    9.2272    5.4406   -2.8622 C   0  0  0  0  0  0  0  0  0  0  0  0
    9.6400    6.1098   -4.0114 C   0  0  0  0  0  0  0  0  0  0  0  0
   10.4586    7.2255   -3.9495 C   0  0  0  0  0  0  0  0  0  0  0  0
   10.8750    7.7057   -2.7262 C   0  0  0  0  0  0  0  0  0  0  0  0
   10.4812    7.0588   -1.5630 C   0  0  0  0  0  0  0  0  0  0  0  0
    9.6775    5.9334   -1.6143 C   0  0  0  0  0  0  0  0  0  0  0  0
    9.3080    5.7602   -4.9754 H   0  0  0  0  0  0  0  0  0  0  0  0
   10.7586    7.7186   -4.8615 H   0  0  0  0  0  0  0  0  0  0  0  0
   11.5086    8.5766   -2.6618 H   0  0  0  0  0  0  0  0  0  0  0  0
   10.8261    7.4377   -0.6149 H   0  0  0  0  0  0  0  0  0  0  0  0
    9.2896    5.2281   -0.4999 O   0  0  0  0  0  0  0  0  0  0  0  0
    9.8044    5.6129    0.7565 C   0  0  0  0  0  0  0  0  0  0  0  0
   10.8971    5.5784    0.7668 H   0  0  0  0  0  0  0  0  0  0  0  0
    9.4112    4.8847    1.4632 H   0  0  0  0  0  0  0  0  0  0  0  0
    9.4651    6.6136    1.0388 H   0  0  0  0  0  0  0  0  0  0  0  0
  2 22  1  0  0  0  0
 56 61  1  0  0  0  0
 53 54  4  0  0  0  0
 22 23  1  0  0  0  0
 55 56  4  0  0  0  0
 52 53  4  0  0  0  0
 54 55  4  0  0  0  0
 51 52  4  0  0  0  0
 61 62  1  0  0  0  0
 29 30  1  0  0  0  0
 51 56  4  0  0  0  0
 25 26  1  0  0  0  0
 26 27  1  0  0  0  0
 32 33  1  0  0  0  0
  4  8  4  0  0  0  0
 24 25  1  0  0  0  0
  5  9  4  0  0  0  0
  3  7  4  0  0  0  0
  7 11  4  0  0  0  0
  3  6  4  0  0  0  0
 10 11  4  0  0  0  0
  6 10  4  0  0  0  0
  8  9  4  0  0  0  0
 31 51  1  0  0  0  0
  2  4  4  0  0  0  0
 55 60  1  0  0  0  0
 52 57  1  0  0  0  0
 23 34  1  0  0  0  0
  2  5  4  0  0  0  0
 54 59  1  0  0  0  0
 53 58  1  0  0  0  0
  8 18  1  0  0  0  0
  5 15  1  0  0  0  0
  6 16  1  0  0  0  0
  7 17  1  0  0  0  0
 11 12  1  0  0  0  0
 10 20  1  0  0  0  0
  9 19  1  0  0  0  0
  3 13  1  0  0  0  0
  4 14  1  0  0  0  0
 30 45  1  0  0  0  0
 62 64  1  0  0  0  0
 29 44  1  0  0  0  0
 26 39  1  0  0  0  0
 26 40  1  0  0  0  0
 24 35  1  0  0  0  0
 25 37  1  0  0  0  0
 32 48  1  0  0  0  0
 33 47  1  0  0  0  0
 27 41  1  0  0  0  0
 62 63  1  0  0  0  0
 25 38  1  0  0  0  0
 24 36  1  0  0  0  0
 62 65  1  0  0  0  0
 32 49  1  0  0  0  0
 30 46  1  0  0  0  0
 33 50  1  0  0  0  0
 27 42  1  0  0  0  0
 29 43  1  0  0  0  0
 23 24  1  0  0  0  0
 31 32  1  0  0  0  0
 30 31  1  0  0  0  0
 28 33  1  0  0  0  0
 28 29  1  0  0  0  0
 27 28  1  0  0  0  0
 21 22  2  0  0  0  0
  1  2  1  0  0  0  0
  1  3  1  0  0  0  0
  1  4  1  0  0  0  0
  1  5  1  0  0  0  0
  1  6  1  0  0  0  0
  1  7  1  0  0  0  0
  1  9  1  0  0  0  0
  1 10  1  0  0  0  0
  1 11  1  0  0  0  0
M  END
$$$$
