compound_118
  GFN2-xTB geometry (ORCA XTB2, DDCOSMO(water))

 73 81  0  0  0  0  0  0  0  0999 V2000
   -5.1955   -4.5743   -0.0512 C   0  0  0  0  0  0  0  0  0  0  0  0
   -6.1501   -5.3981    0.4834 C   0  0  0  0  0  0  0  0  0  0  0  0
   -6.3210   -6.7225   -0.0352 C   0  0  0  0  0  0  0  0  0  0  0  0
   -5.5588   -7.1429   -1.0927 C   0  0  0  0  0  0  0  0  0  0  0  0
   -4.6123   -6.2844   -1.6833 C   0  0  0  0  0  0  0  0  0  0  0  0
   -4.3992   -4.9940   -1.1354 C   0  0  0  0  0  0  0  0  0  0  0  0
   -5.0543   -3.5831    0.3385 H   0  0  0  0  0  0  0  0  0  0  0  0
  -11.1513   -3.2803   -1.7962 H   0  0  0  0  0  0  0  0  0  0  0  0
   -5.6769   -8.1182   -1.5333 H   0  0  0  0  0  0  0  0  0  0  0  0
  -11.6567   -2.0950   -0.7633 H   0  0  0  0  0  0  0  0  0  0  0  0
   -7.2853   -7.4422    0.5797 O   0  0  0  0  0  0  0  0  0  0  0  0
   -7.5123   -8.7740    0.1610 C   0  0  0  0  0  0  0  0  0  0  0  0
   -7.8495   -8.8078   -0.8783 H   0  0  0  0  0  0  0  0  0  0  0  0
   -8.2939   -9.1519    0.8156 H   0  0  0  0  0  0  0  0  0  0  0  0
   -6.6111   -9.3815    0.2706 H   0  0  0  0  0  0  0  0  0  0  0  0
   -6.9995   -5.0753    1.4813 O   0  0  0  0  0  0  0  0  0  0  0  0
   -7.0847   -3.7226    1.9337 C   0  0  0  0  0  0  0  0  0  0  0  0
   -8.5378   -3.4757    2.3252 C   0  0  0  0  0  0  0  0  0  0  0  0
   -6.4070   -3.5754    2.7798 H   0  0  0  0  0  0  0  0  0  0  0  0
   -8.6555   -2.4680    2.7280 H   0  0  0  0  0  0  0  0  0  0  0  0
   -8.8278   -4.2098    3.0843 H   0  0  0  0  0  0  0  0  0  0  0  0
   -6.8130   -3.0443    1.1184 H   0  0  0  0  0  0  0  0  0  0  0  0
   -9.3769   -3.6382    1.1388 N   0  0  0  0  0  0  0  0  0  0  0  0
   -9.1529   -4.5676    0.7564 H   0  0  0  0  0  0  0  0  0  0  0  0
   -3.0490   -0.1270    3.7344 Cl  0  0  0  0  0  0  0  0  0  0  0  0
  -10.8132   -3.6158    1.4373 C   0  0  0  0  0  0  0  0  0  0  0  0
  -11.5173   -3.9246    0.1242 C   0  0  0  0  0  0  0  0  0  0  0  0
  -11.0564   -2.9212   -0.8440 N   0  0  0  0  0  0  0  0  0  0  0  0
  -11.0674   -4.3513    2.2053 H   0  0  0  0  0  0  0  0  0  0  0  0
  -11.0727   -2.6112    1.7868 H   0  0  0  0  0  0  0  0  0  0  0  0
  -12.6031   -3.8933    0.2405 H   0  0  0  0  0  0  0  0  0  0  0  0
  -11.2228   -4.9200   -0.2240 H   0  0  0  0  0  0  0  0  0  0  0  0
   -3.9631   -6.7103   -2.7960 N   0  0  0  0  0  0  0  0  0  0  0  0
   -3.1618   -5.8491   -3.3607 C   0  0  0  0  0  0  0  0  0  0  0  0
   -2.8711   -4.6212   -2.9455 N   0  0  0  0  0  0  0  0  0  0  0  0
   -3.4411   -4.1897   -1.8216 C   0  0  0  0  0  0  0  0  0  0  0  0
   -5.8893   -1.1211   -0.6721 H   0  0  0  0  0  0  0  0  0  0  0  0
   -2.6701   -6.1673   -4.2727 H   0  0  0  0  0  0  0  0  0  0  0  0
   -7.0372   -0.5879    1.4443 H   0  0  0  0  0  0  0  0  0  0  0  0
   -3.1199   -2.9073   -1.4966 N   0  0  0  0  0  0  0  0  0  0  0  0
   -3.0948   -2.2770   -0.2597 C   0  0  0  0  0  0  0  0  0  0  0  0
   -2.8296   -2.9770    0.9185 C   0  0  0  0  0  0  0  0  0  0  0  0
   -2.8283   -2.2982    2.1193 C   0  0  0  0  0  0  0  0  0  0  0  0
   -3.0743   -0.9329    2.1909 C   0  0  0  0  0  0  0  0  0  0  0  0
   -3.3042   -0.2351    1.0139 C   0  0  0  0  0  0  0  0  0  0  0  0
   -3.3077   -0.8979   -0.1977 C   0  0  0  0  0  0  0  0  0  0  0  0
   -2.6203   -4.0346    0.9081 H   0  0  0  0  0  0  0  0  0  0  0  0
   -2.6731   -2.4108   -2.2581 H   0  0  0  0  0  0  0  0  0  0  0  0
   -2.5747   -2.9932    3.2532 F   0  0  0  0  0  0  0  0  0  0  0  0
   -3.4834    0.8257    1.0580 H   0  0  0  0  0  0  0  0  0  0  0  0
   -3.4772   -0.3494   -1.1108 H   0  0  0  0  0  0  0  0  0  0  0  0
   -9.0530   -2.3588   -0.5123 Ru  0  0  0  0  0  0  0  0  0  0  0  0
   -7.6411   -0.8551   -1.9191 C   0  0  0  0  0  0  0  0  0  0  0  0
   -8.9866   -0.4592   -1.9307 C   0  0  0  0  0  0  0  0  0  0  0  0
   -9.6740   -0.2425   -0.7093 C   0  0  0  0  0  0  0  0  0  0  0  0
   -8.9942   -0.3504    0.5260 C   0  0  0  0  0  0  0  0  0  0  0  0
   -7.6047   -0.6346    0.5232 C   0  0  0  0  0  0  0  0  0  0  0  0
   -6.9557   -0.9363   -0.6682 C   0  0  0  0  0  0  0  0  0  0  0  0
   -9.4909   -0.2931   -2.8747 H   0  0  0  0  0  0  0  0  0  0  0  0
  -10.6921    0.1339   -0.7347 H   0  0  0  0  0  0  0  0  0  0  0  0
   -8.3785   -4.3694   -1.7191 Cl  0  0  0  0  0  0  0  0  0  0  0  0
   -9.4856   -0.0550    1.4455 H   0  0  0  0  0  0  0  0  0  0  0  0
   -6.8909   -1.0680   -3.1673 C   0  0  0  0  0  0  0  0  0  0  0  0
   -5.9267   -2.0721   -3.2484 C   0  0  0  0  0  0  0  0  0  0  0  0
   -5.2128   -2.2711   -4.4147 C   0  0  0  0  0  0  0  0  0  0  0  0
   -5.4410   -1.4613   -5.5155 C   0  0  0  0  0  0  0  0  0  0  0  0
   -6.3918   -0.4559   -5.4437 C   0  0  0  0  0  0  0  0  0  0  0  0
   -7.1151   -0.2610   -4.2824 C   0  0  0  0  0  0  0  0  0  0  0  0
   -5.7621   -2.7347   -2.4094 H   0  0  0  0  0  0  0  0  0  0  0  0
   -4.4785   -3.0634   -4.4644 H   0  0  0  0  0  0  0  0  0  0  0  0
   -4.8803   -1.6169   -6.4245 H   0  0  0  0  0  0  0  0  0  0  0  0
   -6.5686    0.1778   -6.2994 H   0  0  0  0  0  0  0  0  0  0  0  0
   -7.8372    0.5391   -4.2341 H   0  0  0  0  0  0  0  0  0  0  0  0
  6 36  1  0  0  0  0
  2 16  1  0  0  0  0
  3 11  1  0  0  0  0
 53 63  1  0  0  0  0
 33 34  2  0  0  0  0
  1  2  4  0  0  0  0
  3  4  4  0  0  0  0
 43 49  1  0  0  0  0
 42 43  4  0  0  0  0
 45 46  4  0  0  0  0
 64 65  4  0  0  0  0
 67 68  4  0  0  0  0
 65 66  4  0  0  0  0
 66 67  4  0  0  0  0
 44 45  4  0  0  0  0
 43 44  4  0  0  0  0
 57 58  4  0  0  0  0
 34 35  1  0  0  0  0
  5 33  1  0  0  0  0
 63 64  4  0  0  0  0
 63 68  4  0  0  0  0
 35 36  2  0  0  0  0
 41 42  4  0  0  0  0
 41 46  4  0  0  0  0
 36 40  1  0  0  0  0
 53 54  4  0  0  0  0
  4  5  4  0  0  0  0
  1  6  4  0  0  0  0
 26 27  1  0  0  0  0
 11 12  1  0  0  0  0
 25 44  1  0  0  0  0
 17 18  1  0  0  0  0
 55 56  4  0  0  0  0
  5  6  4  0  0  0  0
 54 55  4  0  0  0  0
 56 57  4  0  0  0  0
 16 17  1  0  0  0  0
 40 41  1  0  0  0  0
 53 58  4  0  0  0  0
  2  3  4  0  0  0  0
  1  7  1  0  0  0  0
  4  9  1  0  0  0  0
 45 50  1  0  0  0  0
 42 47  1  0  0  0  0
 46 51  1  0  0  0  0
 68 73  1  0  0  0  0
 67 72  1  0  0  0  0
 66 71  1  0  0  0  0
 65 70  1  0  0  0  0
 64 69  1  0  0  0  0
 37 58  1  0  0  0  0
 39 57  1  0  0  0  0
 54 59  1  0  0  0  0
 56 62  1  0  0  0  0
 34 38  1  0  0  0  0
 40 48  1  0  0  0  0
 55 60  1  0  0  0  0
 12 14  1  0  0  0  0
 18 20  1  0  0  0  0
 12 15  1  0  0  0  0
 27 31  1  0  0  0  0
 12 13  1  0  0  0  0
 26 29  1  0  0  0  0
  8 28  1  0  0  0  0
 17 19  1  0  0  0  0
 17 22  1  0  0  0  0
 27 32  1  0  0  0  0
 26 30  1  0  0  0  0
 18 21  1  0  0  0  0
 10 28  1  0  0  0  0
 23 24  1  0  0  0  0
 18 23  1  0  0  0  0
 23 26  1  0  0  0  0
 27 28  1  0  0  0  0
 52 28  1  0  0  0  0
 52 23  1  0  0  0  0
 52 61  1  0  0  0  0
 52 53  1  0  0  0  0
 52 54  1  0  0  0  0
 52 55  1  0  0  0  0
 52 56  1  0  0  0  0
M  END
$$$$
