compound_66
  GFN2-xTB geometry (ORCA XTB2, DDCOSMO(water))

 71 78  0  0  0  0  0  0  0  0999 V2000
   -0.5076   -2.8245    1.1737 Ru  0  0  0  0  0  0  0  0  0  0  0  0
    1.8026   -3.0110   -0.6080 C   0  0  0  0  0  0  0  0  0  0  0  0
    2.9111   -3.5992   -1.2146 C   0  0  0  0  0  0  0  0  0  0  0  0
    3.3053   -4.8667   -0.8349 C   0  0  0  0  0  0  0  0  0  0  0  0
    2.5681   -5.5327    0.1366 C   0  0  0  0  0  0  0  0  0  0  0  0
    1.4824   -4.8938    0.7012 C   0  0  0  0  0  0  0  0  0  0  0  0
    1.1136   -3.6601    0.3589 N   0  0  0  0  0  0  0  0  0  0  0  0
    2.0894   -4.1633    3.6070 H   0  0  0  0  0  0  0  0  0  0  0  0
    3.4414   -3.0592   -1.9804 H   0  0  0  0  0  0  0  0  0  0  0  0
    2.8259   -6.5294    0.4519 H   0  0  0  0  0  0  0  0  0  0  0  0
    0.8730   -5.3894    1.4472 H   0  0  0  0  0  0  0  0  0  0  0  0
    1.2159   -1.7227   -0.9332 C   0  0  0  0  0  0  0  0  0  0  0  0
    1.6985   -0.8343   -1.8897 C   0  0  0  0  0  0  0  0  0  0  0  0
    1.0051    0.3357   -2.1684 C   0  0  0  0  0  0  0  0  0  0  0  0
   -0.1840    0.5850   -1.4812 C   0  0  0  0  0  0  0  0  0  0  0  0
   -0.6577   -0.2965   -0.5249 C   0  0  0  0  0  0  0  0  0  0  0  0
    0.0338   -1.4581   -0.2156 C   0  0  0  0  0  0  0  0  0  0  0  0
    2.5981   -1.0630   -2.4394 H   0  0  0  0  0  0  0  0  0  0  0  0
    4.1612   -5.3353   -1.2926 H   0  0  0  0  0  0  0  0  0  0  0  0
   -0.7346    1.4914   -1.6865 H   0  0  0  0  0  0  0  0  0  0  0  0
   -1.5889   -0.0691   -0.0242 H   0  0  0  0  0  0  0  0  0  0  0  0
   -1.7729   -4.0395   -0.5484 Cl  0  0  0  0  0  0  0  0  0  0  0  0
   -0.7125   -1.2435    2.7230 C   0  0  0  0  0  0  0  0  0  0  0  0
   -2.0310   -1.7282    2.5412 C   0  0  0  0  0  0  0  0  0  0  0  0
   -2.2245   -3.1199    2.6767 C   0  0  0  0  0  0  0  0  0  0  0  0
   -1.2148   -3.9716    3.1899 C   0  0  0  0  0  0  0  0  0  0  0  0
    0.0669   -3.4781    3.4364 C   0  0  0  0  0  0  0  0  0  0  0  0
    0.3369   -2.1153    3.1112 C   0  0  0  0  0  0  0  0  0  0  0  0
   -2.7767    0.1822    1.9931 H   0  0  0  0  0  0  0  0  0  0  0  0
   -0.5201   -0.1777    2.6520 H   0  0  0  0  0  0  0  0  0  0  0  0
   -3.2201   -3.5321    2.5388 H   0  0  0  0  0  0  0  0  0  0  0  0
    1.3127   -1.7008    3.3441 H   0  0  0  0  0  0  0  0  0  0  0  0
   -1.4626   -4.9984    3.4288 H   0  0  0  0  0  0  0  0  0  0  0  0
   -3.1865   -0.7809    2.3151 C   0  0  0  0  0  0  0  0  0  0  0  0
   -4.1463   -1.2817    1.2329 C   0  0  0  0  0  0  0  0  0  0  0  0
   -3.9251   -0.5689    3.6417 C   0  0  0  0  0  0  0  0  0  0  0  0
   -3.2479   -0.1707    4.3931 H   0  0  0  0  0  0  0  0  0  0  0  0
   -4.3325   -1.5101    4.0038 H   0  0  0  0  0  0  0  0  0  0  0  0
   -4.7434    0.1315    3.5002 H   0  0  0  0  0  0  0  0  0  0  0  0
   -3.5936   -1.6325    0.3579 H   0  0  0  0  0  0  0  0  0  0  0  0
   -4.8114   -0.4814    0.9211 H   0  0  0  0  0  0  0  0  0  0  0  0
   -4.7560   -2.1059    1.5957 H   0  0  0  0  0  0  0  0  0  0  0  0
    1.1250   -4.3123    4.0881 C   0  0  0  0  0  0  0  0  0  0  0  0
    0.8688   -5.3682    4.0616 H   0  0  0  0  0  0  0  0  0  0  0  0
    1.2195   -4.0072    5.1306 H   0  0  0  0  0  0  0  0  0  0  0  0
    1.5071    1.2832   -3.1744 C   0  0  0  0  0  0  0  0  0  0  0  0
    0.6365    1.9201   -4.0555 C   0  0  0  0  0  0  0  0  0  0  0  0
    1.1134    2.8071   -5.0012 C   0  0  0  0  0  0  0  0  0  0  0  0
    2.4699    3.0933   -5.0930 C   0  0  0  0  0  0  0  0  0  0  0  0
    3.3387    2.4580   -4.2139 C   0  0  0  0  0  0  0  0  0  0  0  0
    2.8679    1.5663   -3.2702 C   0  0  0  0  0  0  0  0  0  0  0  0
   -0.4201    1.6996   -4.0109 H   0  0  0  0  0  0  0  0  0  0  0  0
    0.4222    3.2864   -5.6799 H   0  0  0  0  0  0  0  0  0  0  0  0
    3.5563    1.0978   -2.5829 H   0  0  0  0  0  0  0  0  0  0  0  0
    4.3967    2.6707   -4.2682 H   0  0  0  0  0  0  0  0  0  0  0  0
    2.9899    4.0234   -6.1494 C   0  0  0  0  0  0  0  0  0  0  0  0
    3.3497    3.2436   -7.4203 C   0  0  0  0  0  0  0  0  0  0  0  0
    3.8857    4.1648   -8.5135 C   0  0  0  0  0  0  0  0  0  0  0  0
    4.1769    3.4371   -9.8267 C   0  0  0  0  0  0  0  0  0  0  0  0
    3.1475    4.9479   -8.7036 H   0  0  0  0  0  0  0  0  0  0  0  0
    4.3937    4.1819  -10.5960 H   0  0  0  0  0  0  0  0  0  0  0  0
    3.2851    2.8891  -10.1393 H   0  0  0  0  0  0  0  0  0  0  0  0
    3.8801    4.5397   -5.7851 H   0  0  0  0  0  0  0  0  0  0  0  0
    2.2332    4.7724   -6.3910 H   0  0  0  0  0  0  0  0  0  0  0  0
    2.4600    2.7238   -7.7841 H   0  0  0  0  0  0  0  0  0  0  0  0
    4.0951    2.4882   -7.1677 H   0  0  0  0  0  0  0  0  0  0  0  0
    4.7989    4.6501   -8.1615 H   0  0  0  0  0  0  0  0  0  0  0  0
    5.3552    2.4742   -9.7302 C   0  0  0  0  0  0  0  0  0  0  0  0
    6.2447    2.9972   -9.3860 H   0  0  0  0  0  0  0  0  0  0  0  0
    5.5679    2.0400  -10.7042 H   0  0  0  0  0  0  0  0  0  0  0  0
    5.1411    1.6644   -9.0381 H   0  0  0  0  0  0  0  0  0  0  0  0
  2 12  1  0  0  0  0
 14 46  1  0  0  0  0
  5  6  4  0  0  0  0
  3  4  4  0  0  0  0
 50 51  4  0  0  0  0
 47 48  4  0  0  0  0
 15 16  4  0  0  0  0
 16 17  4  0  0  0  0
 27 43  1  0  0  0  0
 13 14  4  0  0  0  0
 48 49  4  0  0  0  0
  4  5  4  0  0  0  0
 49 50  4  0  0  0  0
 49 56  1  0  0  0  0
 12 13  4  0  0  0  0
 46 47  4  0  0  0  0
 46 51  4  0  0  0  0
  2  3  4  0  0  0  0
 26 27  4  0  0  0  0
  6  7  4  0  0  0  0
 14 15  4  0  0  0  0
 24 34  1  0  0  0  0
 12 17  4  0  0  0  0
 24 25  4  0  0  0  0
 59 68  1  0  0  0  0
 57 58  1  0  0  0  0
 23 24  4  0  0  0  0
 25 26  4  0  0  0  0
 58 59  1  0  0  0  0
  2  7  4  0  0  0  0
 23 28  4  0  0  0  0
 34 35  1  0  0  0  0
 34 36  1  0  0  0  0
 56 57  1  0  0  0  0
 27 28  4  0  0  0  0
  3  9  1  0  0  0  0
  5 10  1  0  0  0  0
  4 19  1  0  0  0  0
 13 18  1  0  0  0  0
 51 54  1  0  0  0  0
 15 20  1  0  0  0  0
 47 52  1  0  0  0  0
 50 55  1  0  0  0  0
 48 53  1  0  0  0  0
 16 21  1  0  0  0  0
 26 33  1  0  0  0  0
  6 11  1  0  0  0  0
 23 30  1  0  0  0  0
 28 32  1  0  0  0  0
 25 31  1  0  0  0  0
 35 41  1  0  0  0  0
 36 39  1  0  0  0  0
 68 71  1  0  0  0  0
 43 44  1  0  0  0  0
 36 37  1  0  0  0  0
 68 70  1  0  0  0  0
 35 42  1  0  0  0  0
 36 38  1  0  0  0  0
 68 69  1  0  0  0  0
  8 43  1  0  0  0  0
 43 45  1  0  0  0  0
 57 66  1  0  0  0  0
 56 63  1  0  0  0  0
 56 64  1  0  0  0  0
 59 62  1  0  0  0  0
 58 67  1  0  0  0  0
 59 61  1  0  0  0  0
 35 40  1  0  0  0  0
 57 65  1  0  0  0  0
 58 60  1  0  0  0  0
 29 34  1  0  0  0  0
  1  7  1  0  0  0  0
  1 24  1  0  0  0  0
  1 27  1  0  0  0  0
  1 22  1  0  0  0  0
  1 26  1  0  0  0  0
  1 17  1  0  0  0  0
  1 23  1  0  0  0  0
M  END
$$$$
