compound_94
  GFN2-xTB geometry (ORCA XTB2, DDCOSMO(water))

 29 32  0  0  0  0  0  0  0  0999 V2000
   -2.2740   -2.9589    1.1559 N   0  0  0  0  0  0  0  0  0  0  0  0
   -3.2066   -3.1228    2.1211 C   0  0  0  0  0  0  0  0  0  0  0  0
   -3.2587   -4.3418    2.8069 C   0  0  0  0  0  0  0  0  0  0  0  0
   -2.3854   -5.3557    2.4985 C   0  0  0  0  0  0  0  0  0  0  0  0
   -1.4457   -5.1529    1.4862 C   0  0  0  0  0  0  0  0  0  0  0  0
   -1.4169   -3.9494    0.8359 C   0  0  0  0  0  0  0  0  0  0  0  0
   -4.3112   -1.8553    2.5113 S   0  0  0  0  0  0  0  0  0  0  0  0
   -4.0090   -4.4371    3.5741 H   0  0  0  0  0  0  0  0  0  0  0  0
   -2.4289   -6.2911    3.0303 H   0  0  0  0  0  0  0  0  0  0  0  0
   -0.7449   -5.9209    1.2083 H   0  0  0  0  0  0  0  0  0  0  0  0
   -0.7245   -3.7011    0.0466 H   0  0  0  0  0  0  0  0  0  0  0  0
   -2.1324   -1.8206    0.4776 O   0  0  0  0  0  0  0  0  0  0  0  0
   -2.5036    1.6561    2.8344 N   0  0  0  0  0  0  0  0  0  0  0  0
   -3.6950    2.2678    2.6568 C   0  0  0  0  0  0  0  0  0  0  0  0
   -3.9265    3.4965    3.2804 C   0  0  0  0  0  0  0  0  0  0  0  0
   -2.9508    4.0800    4.0534 C   0  0  0  0  0  0  0  0  0  0  0  0
   -1.7294    3.4242    4.2062 C   0  0  0  0  0  0  0  0  0  0  0  0
   -1.5380    2.2178    3.5872 C   0  0  0  0  0  0  0  0  0  0  0  0
   -4.9319    1.5305    1.6885 S   0  0  0  0  0  0  0  0  0  0  0  0
   -4.8893    3.9514    3.1200 H   0  0  0  0  0  0  0  0  0  0  0  0
   -3.1291    5.0296    4.5290 H   0  0  0  0  0  0  0  0  0  0  0  0
   -0.9353    3.8452    4.7981 H   0  0  0  0  0  0  0  0  0  0  0  0
   -0.6284    1.6412    3.6535 H   0  0  0  0  0  0  0  0  0  0  0  0
   -2.2321    0.4720    2.2958 O   0  0  0  0  0  0  0  0  0  0  0  0
   -3.5697   -0.2749    0.8269 Ru  0  0  0  0  0  0  0  0  0  0  0  0
   -2.8594    0.8738   -0.4456 C   0  0  0  0  0  0  0  0  0  0  0  0
   -2.3915    1.6009   -1.1894 O   0  0  0  0  0  0  0  0  0  0  0  0
   -4.8377   -1.0238   -0.2866 C   0  0  0  0  0  0  0  0  0  0  0  0
   -5.6596   -1.5524   -0.8791 O   0  0  0  0  0  0  0  0  0  0  0  0
  5  6  2  0  0  0  0
 17 18  2  0  0  0  0
  3  4  2  0  0  0  0
 15 16  2  0  0  0  0
 13 18  1  0  0  0  0
  1  6  1  0  0  0  0
 13 14  1  0  0  0  0
  1  2  1  0  0  0  0
 13 24  1  0  0  0  0
 16 17  1  0  0  0  0
  4  5  1  0  0  0  0
 14 15  1  0  0  0  0
  1 12  1  0  0  0  0
  2  3  1  0  0  0  0
  5 10  1  0  0  0  0
 17 22  1  0  0  0  0
 15 20  1  0  0  0  0
 16 21  1  0  0  0  0
  4  9  1  0  0  0  0
  3  8  1  0  0  0  0
  6 11  1  0  0  0  0
 18 23  1  0  0  0  0
  2  7  2  0  0  0  0
 14 19  2  0  0  0  0
 26 27  2  0  0  0  0
 28 29  2  0  0  0  0
 25  7  1  0  0  0  0
 25 19  1  0  0  0  0
 25 28  1  0  0  0  0
 25 12  1  0  0  0  0
 25 24  1  0  0  0  0
 25 26  1  0  0  0  0
M  END
$$$$
