compound_37
  GFN2-xTB geometry (ORCA XTB2, DDCOSMO(water))

 42 52  0  0  0  0  0  0  0  0999 V2000
    2.0320   -2.9239   -3.1853 Ru  0  0  0  0  0  0  0  0  0  0  0  0
    2.8902   -2.9906   -1.1372 C   0  0  0  0  0  0  0  0  0  0  0  0
    3.3429   -3.7771   -4.7674 C   0  0  0  0  0  0  0  0  0  0  0  0
    1.6715   -3.7222   -1.1550 C   0  0  0  0  0  0  0  0  0  0  0  0
    2.6034   -1.6347   -1.4650 C   0  0  0  0  0  0  0  0  0  0  0  0
    3.0486   -2.4250   -5.1006 C   0  0  0  0  0  0  0  0  0  0  0  0
    2.1176   -4.5010   -4.7460 C   0  0  0  0  0  0  0  0  0  0  0  0
    0.6146   -2.8105   -1.4838 C   0  0  0  0  0  0  0  0  0  0  0  0
    1.2062   -1.5204   -1.6979 C   0  0  0  0  0  0  0  0  0  0  0  0
    1.6416   -2.3144   -5.2850 C   0  0  0  0  0  0  0  0  0  0  0  0
    1.0675   -3.5972   -5.0683 C   0  0  0  0  0  0  0  0  0  0  0  0
    3.8441   -3.3683   -0.7964 H   0  0  0  0  0  0  0  0  0  0  0  0
    4.3322   -4.2077   -4.6927 H   0  0  0  0  0  0  0  0  0  0  0  0
    1.5460   -4.7467   -0.8328 H   0  0  0  0  0  0  0  0  0  0  0  0
    3.2997   -0.8095   -1.4074 H   0  0  0  0  0  0  0  0  0  0  0  0
    3.7763   -1.6558   -5.3212 H   0  0  0  0  0  0  0  0  0  0  0  0
    2.0192   -5.5738   -4.6517 H   0  0  0  0  0  0  0  0  0  0  0  0
    0.0348   -3.8655   -5.2491 H   0  0  0  0  0  0  0  0  0  0  0  0
    0.6539   -0.5992   -1.8264 H   0  0  0  0  0  0  0  0  0  0  0  0
    1.1211   -1.4468   -5.6671 H   0  0  0  0  0  0  0  0  0  0  0  0
   -1.7941   -2.5709   -2.3488 C   0  0  0  0  0  0  0  0  0  0  0  0
   -2.9595   -3.1672   -2.0473 N   0  0  0  0  0  0  0  0  0  0  0  0
   -2.7733   -4.0017   -1.0942 N   0  0  0  0  0  0  0  0  0  0  0  0
   -1.4811   -3.9739   -0.7396 N   0  0  0  0  0  0  0  0  0  0  0  0
   -0.8068   -3.0767   -1.5164 C   0  0  0  0  0  0  0  0  0  0  0  0
   -1.0262   -4.7211    0.3570 C   0  0  0  0  0  0  0  0  0  0  0  0
   -1.5180   -6.0103    0.5388 C   0  0  0  0  0  0  0  0  0  0  0  0
   -1.1120   -6.7430    1.6394 C   0  0  0  0  0  0  0  0  0  0  0  0
   -0.2265   -6.1785    2.5362 C   0  0  0  0  0  0  0  0  0  0  0  0
    0.2597   -4.8966    2.3696 C   0  0  0  0  0  0  0  0  0  0  0  0
   -0.1446   -4.1543    1.2750 C   0  0  0  0  0  0  0  0  0  0  0  0
   -2.2178   -6.4120   -0.1751 H   0  0  0  0  0  0  0  0  0  0  0  0
   -1.4795   -7.7390    1.8217 H   0  0  0  0  0  0  0  0  0  0  0  0
    0.2793   -7.1215    3.9572 S   0  0  0  0  0  0  0  0  0  0  0  0
    0.9297   -4.4907    3.1094 H   0  0  0  0  0  0  0  0  0  0  0  0
    0.2072   -3.1441    1.1404 H   0  0  0  0  0  0  0  0  0  0  0  0
   -0.7616   -8.0697    4.2884 O   0  0  0  0  0  0  0  0  0  0  0  0
    0.6935   -6.2162    5.0062 O   0  0  0  0  0  0  0  0  0  0  0  0
    1.6097   -7.9552    3.4196 N   0  0  0  0  0  0  0  0  0  0  0  0
    1.4431   -8.9473    3.3924 H   0  0  0  0  0  0  0  0  0  0  0  0
    2.4400   -7.7206    3.9377 H   0  0  0  0  0  0  0  0  0  0  0  0
   -1.7182   -1.8470   -3.1331 H   0  0  0  0  0  0  0  0  0  0  0  0
  8 25  1  0  0  0  0
 34 39  1  0  0  0  0
 23 24  1  0  0  0  0
 28 29  4  0  0  0  0
 29 30  4  0  0  0  0
 30 31  4  0  0  0  0
 27 28  4  0  0  0  0
 21 25  2  0  0  0  0
 26 27  4  0  0  0  0
 26 31  4  0  0  0  0
 24 25  1  0  0  0  0
 29 34  1  0  0  0  0
 21 22  1  0  0  0  0
 22 23  2  0  0  0  0
  5  9  4  0  0  0  0
  2  4  4  0  0  0  0
 10 11  4  0  0  0  0
  7 11  4  0  0  0  0
  6 10  4  0  0  0  0
  3  6  4  0  0  0  0
  3  7  4  0  0  0  0
  2  5  4  0  0  0  0
 21 42  1  0  0  0  0
  4  8  4  0  0  0  0
  8  9  4  0  0  0  0
 39 40  1  0  0  0  0
 39 41  1  0  0  0  0
 28 33  1  0  0  0  0
 27 32  1  0  0  0  0
 30 35  1  0  0  0  0
 31 36  1  0  0  0  0
 24 26  1  0  0  0  0
  2 12  1  0  0  0  0
  5 15  1  0  0  0  0
  4 14  1  0  0  0  0
  7 17  1  0  0  0  0
  3 13  1  0  0  0  0
 10 20  1  0  0  0  0
  6 16  1  0  0  0  0
  9 19  1  0  0  0  0
 11 18  1  0  0  0  0
 34 38  2  0  0  0  0
 34 37  2  0  0  0  0
  1  3  1  0  0  0  0
  1  7  1  0  0  0  0
  1 11  1  0  0  0  0
  1  4  1  0  0  0  0
  1  6  1  0  0  0  0
  1 10  1  0  0  0  0
  1  2  1  0  0  0  0
  1  5  1  0  0  0  0
  1  9  1  0  0  0  0
M  END
$$$$
