compound_69
  GFN2-xTB geometry (ORCA XTB2, DDCOSMO(water))

 71 78  0  0  0  0  0  0  0  0999 V2000
   -0.6343   -2.8522    1.0971 Ru  0  0  0  0  0  0  0  0  0  0  0  0
    1.6395   -3.1713   -0.7396 C   0  0  0  0  0  0  0  0  0  0  0  0
    2.7492   -3.8425   -1.2871 C   0  0  0  0  0  0  0  0  0  0  0  0
    2.9822   -5.1527   -0.8879 C   0  0  0  0  0  0  0  0  0  0  0  0
    2.1382   -5.7785    0.0144 C   0  0  0  0  0  0  0  0  0  0  0  0
    1.0935   -5.0488    0.5390 C   0  0  0  0  0  0  0  0  0  0  0  0
    0.8659   -3.7839    0.1925 N   0  0  0  0  0  0  0  0  0  0  0  0
    2.0160   -4.4293    3.3417 H   0  0  0  0  0  0  0  0  0  0  0  0
    3.6982   -3.2228   -2.2615 C   0  0  0  0  0  0  0  0  0  0  0  0
    2.2904   -6.8009    0.3150 H   0  0  0  0  0  0  0  0  0  0  0  0
    0.4002   -5.4874    1.2476 H   0  0  0  0  0  0  0  0  0  0  0  0
    1.1095   -1.8446   -1.0534 C   0  0  0  0  0  0  0  0  0  0  0  0
    1.5648   -0.9478   -2.0183 C   0  0  0  0  0  0  0  0  0  0  0  0
    0.8895    0.2426   -2.2615 C   0  0  0  0  0  0  0  0  0  0  0  0
   -0.2646    0.5259   -1.5343 C   0  0  0  0  0  0  0  0  0  0  0  0
   -0.7190   -0.3566   -0.5710 C   0  0  0  0  0  0  0  0  0  0  0  0
   -0.0460   -1.5366   -0.3037 C   0  0  0  0  0  0  0  0  0  0  0  0
    2.4239   -1.1665   -2.6235 H   0  0  0  0  0  0  0  0  0  0  0  0
    3.8249   -5.6885   -1.2954 H   0  0  0  0  0  0  0  0  0  0  0  0
   -0.7996    1.4472   -1.7120 H   0  0  0  0  0  0  0  0  0  0  0  0
   -1.6270   -0.1204   -0.0317 H   0  0  0  0  0  0  0  0  0  0  0  0
   -2.1515   -3.8998   -0.5369 Cl  0  0  0  0  0  0  0  0  0  0  0  0
   -0.5834   -1.2738    2.6608 C   0  0  0  0  0  0  0  0  0  0  0  0
   -1.9485   -1.6431    2.5960 C   0  0  0  0  0  0  0  0  0  0  0  0
   -2.2456   -3.0140    2.7519 C   0  0  0  0  0  0  0  0  0  0  0  0
   -1.2757   -3.9453    3.2009 C   0  0  0  0  0  0  0  0  0  0  0  0
    0.0577   -3.5638    3.3388 C   0  0  0  0  0  0  0  0  0  0  0  0
    0.4167   -2.2346    2.9638 C   0  0  0  0  0  0  0  0  0  0  0  0
   -2.5777    0.3192    2.0852 H   0  0  0  0  0  0  0  0  0  0  0  0
   -0.3067   -0.2283    2.5677 H   0  0  0  0  0  0  0  0  0  0  0  0
   -3.2801   -3.3410    2.6976 H   0  0  0  0  0  0  0  0  0  0  0  0
    1.4406   -1.9048    3.1100 H   0  0  0  0  0  0  0  0  0  0  0  0
   -1.5917   -4.9451    3.4714 H   0  0  0  0  0  0  0  0  0  0  0  0
   -3.0344   -0.5994    2.4682 C   0  0  0  0  0  0  0  0  0  0  0  0
   -4.1441   -1.0241    1.5031 C   0  0  0  0  0  0  0  0  0  0  0  0
   -3.6079   -0.3069    3.8596 C   0  0  0  0  0  0  0  0  0  0  0  0
   -2.8239    0.0409    4.5273 H   0  0  0  0  0  0  0  0  0  0  0  0
   -4.0528   -1.2048    4.2825 H   0  0  0  0  0  0  0  0  0  0  0  0
   -4.3743    0.4598    3.7885 H   0  0  0  0  0  0  0  0  0  0  0  0
   -3.7218   -1.4370    0.5837 H   0  0  0  0  0  0  0  0  0  0  0  0
   -4.7625   -0.1696    1.2431 H   0  0  0  0  0  0  0  0  0  0  0  0
   -4.7851   -1.7825    1.9467 H   0  0  0  0  0  0  0  0  0  0  0  0
    1.0912   -4.4818    3.9124 C   0  0  0  0  0  0  0  0  0  0  0  0
    0.7393   -5.5098    3.9313 H   0  0  0  0  0  0  0  0  0  0  0  0
    1.3093   -4.1721    4.9346 H   0  0  0  0  0  0  0  0  0  0  0  0
    1.3803    1.1774   -3.2855 C   0  0  0  0  0  0  0  0  0  0  0  0
    0.4934    1.8341   -4.1354 C   0  0  0  0  0  0  0  0  0  0  0  0
    0.9556    2.7112   -5.0975 C   0  0  0  0  0  0  0  0  0  0  0  0
    2.3140    2.9674   -5.2376 C   0  0  0  0  0  0  0  0  0  0  0  0
    3.1991    2.3123   -4.3901 C   0  0  0  0  0  0  0  0  0  0  0  0
    2.7426    1.4305   -3.4300 C   0  0  0  0  0  0  0  0  0  0  0  0
   -0.5658    1.6374   -4.0529 H   0  0  0  0  0  0  0  0  0  0  0  0
    0.2510    3.2064   -5.7506 H   0  0  0  0  0  0  0  0  0  0  0  0
    3.4451    0.9473   -2.7682 H   0  0  0  0  0  0  0  0  0  0  0  0
    4.2588    2.5017   -4.4821 H   0  0  0  0  0  0  0  0  0  0  0  0
    2.8151    3.8882   -6.3112 C   0  0  0  0  0  0  0  0  0  0  0  0
    3.0928    3.1082   -7.6021 C   0  0  0  0  0  0  0  0  0  0  0  0
    3.5988    4.0155   -8.7204 C   0  0  0  0  0  0  0  0  0  0  0  0
    3.8772    3.2341   -9.9990 C   0  0  0  0  0  0  0  0  0  0  0  0
    2.8539    4.7885   -8.9222 H   0  0  0  0  0  0  0  0  0  0  0  0
    4.2346    3.8971  -10.7830 H   0  0  0  0  0  0  0  0  0  0  0  0
    2.9721    2.7430  -10.3494 H   0  0  0  0  0  0  0  0  0  0  0  0
    3.7356    4.3755   -5.9843 H   0  0  0  0  0  0  0  0  0  0  0  0
    2.0714    4.6612   -6.5150 H   0  0  0  0  0  0  0  0  0  0  0  0
    2.1747    2.6100   -7.9229 H   0  0  0  0  0  0  0  0  0  0  0  0
    3.8340    2.3321   -7.3981 H   0  0  0  0  0  0  0  0  0  0  0  0
    4.5136    4.5146   -8.3934 H   0  0  0  0  0  0  0  0  0  0  0  0
    4.6321    2.4714   -9.8220 H   0  0  0  0  0  0  0  0  0  0  0  0
    4.5320   -3.8967   -2.4380 H   0  0  0  0  0  0  0  0  0  0  0  0
    4.0846   -2.2829   -1.8761 H   0  0  0  0  0  0  0  0  0  0  0  0
    3.2025   -3.0379   -3.2125 H   0  0  0  0  0  0  0  0  0  0  0  0
  2 12  1  0  0  0  0
 14 46  1  0  0  0  0
  5  6  4  0  0  0  0
 50 51  4  0  0  0  0
 47 48  4  0  0  0  0
 15 16  4  0  0  0  0
 16 17  4  0  0  0  0
  4  5  4  0  0  0  0
  3  9  1  0  0  0  0
 27 43  1  0  0  0  0
  3  4  4  0  0  0  0
 48 49  4  0  0  0  0
 49 50  4  0  0  0  0
 13 14  4  0  0  0  0
 49 56  1  0  0  0  0
 46 47  4  0  0  0  0
 14 15  4  0  0  0  0
 46 51  4  0  0  0  0
 26 27  4  0  0  0  0
 12 13  4  0  0  0  0
  6  7  4  0  0  0  0
 24 34  1  0  0  0  0
  2  3  4  0  0  0  0
 24 25  4  0  0  0  0
 12 17  4  0  0  0  0
 58 59  1  0  0  0  0
 57 58  1  0  0  0  0
 23 24  4  0  0  0  0
 25 26  4  0  0  0  0
 34 35  1  0  0  0  0
 23 28  4  0  0  0  0
 34 36  1  0  0  0  0
 56 57  1  0  0  0  0
  2  7  4  0  0  0  0
 27 28  4  0  0  0  0
 13 18  1  0  0  0  0
  5 10  1  0  0  0  0
  4 19  1  0  0  0  0
 51 54  1  0  0  0  0
 15 20  1  0  0  0  0
 47 52  1  0  0  0  0
 50 55  1  0  0  0  0
 48 53  1  0  0  0  0
 16 21  1  0  0  0  0
 26 33  1  0  0  0  0
  6 11  1  0  0  0  0
 23 30  1  0  0  0  0
 28 32  1  0  0  0  0
 25 31  1  0  0  0  0
 35 41  1  0  0  0  0
 36 39  1  0  0  0  0
  9 69  1  0  0  0  0
 43 44  1  0  0  0  0
  9 70  1  0  0  0  0
 36 37  1  0  0  0  0
 59 61  1  0  0  0  0
 35 42  1  0  0  0  0
 59 68  1  0  0  0  0
 36 38  1  0  0  0  0
 59 62  1  0  0  0  0
  8 43  1  0  0  0  0
  9 71  1  0  0  0  0
 43 45  1  0  0  0  0
 56 63  1  0  0  0  0
 56 64  1  0  0  0  0
 58 67  1  0  0  0  0
 58 60  1  0  0  0  0
 57 66  1  0  0  0  0
 57 65  1  0  0  0  0
 35 40  1  0  0  0  0
 29 34  1  0  0  0  0
  1  7  1  0  0  0  0
  1 22  1  0  0  0  0
  1 24  1  0  0  0  0
  1 27  1  0  0  0  0
  1 26  1  0  0  0  0
  1 17  1  0  0  0  0
  1 23  1  0  0  0  0
M  END
$$$$
