compound_3
  GFN2-xTB geometry (ORCA XTB2, DDCOSMO(water))

 57 65  0  0  0  0  0  0  0  0999 V2000
   -0.8541   -0.6362   -2.0749 C   0  0  0  0  0  0  0  0  0  0  0  0
   -1.2221   -0.7634   -0.7124 C   0  0  0  0  0  0  0  0  0  0  0  0
   -0.3353   -1.4923    0.1240 C   0  0  0  0  0  0  0  0  0  0  0  0
    0.8336   -2.0472   -0.4328 C   0  0  0  0  0  0  0  0  0  0  0  0
    1.1867   -1.9270   -1.8126 C   0  0  0  0  0  0  0  0  0  0  0  0
    0.3118   -1.2000   -2.6068 C   0  0  0  0  0  0  0  0  0  0  0  0
    4.0021   -4.3629    0.5917 H   0  0  0  0  0  0  0  0  0  0  0  0
    5.5218   -4.8308   -1.2986 H   0  0  0  0  0  0  0  0  0  0  0  0
   -1.8225   -1.4053    3.0287 H   0  0  0  0  0  0  0  0  0  0  0  0
    5.0672   -3.9482   -3.5343 H   0  0  0  0  0  0  0  0  0  0  0  0
   -2.3778   -0.2432   -0.1041 C   0  0  0  0  0  0  0  0  0  0  0  0
   -2.5833   -0.4736    1.2369 C   0  0  0  0  0  0  0  0  0  0  0  0
   -1.6544   -1.2122    1.9774 C   0  0  0  0  0  0  0  0  0  0  0  0
   -0.5567   -1.7046    1.4366 N   0  0  0  0  0  0  0  0  0  0  0  0
   -3.0784    0.3205   -0.7006 H   0  0  0  0  0  0  0  0  0  0  0  0
   -3.4616   -0.0903    1.7289 H   0  0  0  0  0  0  0  0  0  0  0  0
    2.4107   -2.6603   -1.9275 C   0  0  0  0  0  0  0  0  0  0  0  0
    2.6872   -3.1636   -0.6199 C   0  0  0  0  0  0  0  0  0  0  0  0
    1.7196   -2.7579    0.2687 N   0  0  0  0  0  0  0  0  0  0  0  0
    3.0618   -2.5618   -3.9692 H   0  0  0  0  0  0  0  0  0  0  0  0
    3.8079   -3.9521   -0.3869 C   0  0  0  0  0  0  0  0  0  0  0  0
    4.6465   -4.2184   -1.4504 C   0  0  0  0  0  0  0  0  0  0  0  0
    4.3881   -3.7183   -2.7275 C   0  0  0  0  0  0  0  0  0  0  0  0
    3.2734   -2.9433   -2.9803 C   0  0  0  0  0  0  0  0  0  0  0  0
    0.3524   -0.8681   -4.0472 C   0  0  0  0  0  0  0  0  0  0  0  0
   -0.7805   -0.1340   -4.2998 N   0  0  0  0  0  0  0  0  0  0  0  0
   -1.5591    0.0404   -3.1518 C   0  0  0  0  0  0  0  0  0  0  0  0
   -2.6136    0.6508   -3.1437 O   0  0  0  0  0  0  0  0  0  0  0  0
    1.1901   -1.1570   -4.8819 O   0  0  0  0  0  0  0  0  0  0  0  0
   -1.1340    0.3903   -5.5966 C   0  0  0  0  0  0  0  0  0  0  0  0
    1.0628   -2.7538    2.2681 Ru  0  0  0  0  0  0  0  0  0  0  0  0
    0.2207   -4.3855    2.0187 C   0  0  0  0  0  0  0  0  0  0  0  0
   -0.3010   -5.3806    1.7984 O   0  0  0  0  0  0  0  0  0  0  0  0
    2.1580   -0.6521    2.5020 S   0  0  0  0  0  0  0  0  0  0  0  0
    2.1407   -0.3325    4.3281 C   0  0  0  0  0  0  0  0  0  0  0  0
    0.8882   -0.8492    5.0012 C   0  0  0  0  0  0  0  0  0  0  0  0
    0.2760   -2.5048    4.4763 S   0  0  0  0  0  0  0  0  0  0  0  0
    1.3231   -3.7199    5.3661 C   0  0  0  0  0  0  0  0  0  0  0  0
    2.7788   -3.7619    4.9685 C   0  0  0  0  0  0  0  0  0  0  0  0
    3.0624   -3.7622    3.1290 S   0  0  0  0  0  0  0  0  0  0  0  0
    4.3321   -2.4250    2.9802 C   0  0  0  0  0  0  0  0  0  0  0  0
    3.8853   -1.1878    2.2275 C   0  0  0  0  0  0  0  0  0  0  0  0
    4.5250   -0.3414    2.4814 H   0  0  0  0  0  0  0  0  0  0  0  0
    2.1879    0.7512    4.4364 H   0  0  0  0  0  0  0  0  0  0  0  0
    3.0429   -0.7689    4.7453 H   0  0  0  0  0  0  0  0  0  0  0  0
    0.0390   -0.2008    4.7830 H   0  0  0  0  0  0  0  0  0  0  0  0
    1.0258   -0.8995    6.0809 H   0  0  0  0  0  0  0  0  0  0  0  0
    0.8233   -4.6671    5.1524 H   0  0  0  0  0  0  0  0  0  0  0  0
    1.2290   -3.4985    6.4295 H   0  0  0  0  0  0  0  0  0  0  0  0
    3.2234   -4.6934    5.3192 H   0  0  0  0  0  0  0  0  0  0  0  0
    3.3263   -2.9267    5.3960 H   0  0  0  0  0  0  0  0  0  0  0  0
    4.6707   -2.1913    3.9865 H   0  0  0  0  0  0  0  0  0  0  0  0
    5.1604   -2.8829    2.4388 H   0  0  0  0  0  0  0  0  0  0  0  0
    3.9254   -1.3456    1.1475 H   0  0  0  0  0  0  0  0  0  0  0  0
   -0.4726    1.2148   -5.8659 H   0  0  0  0  0  0  0  0  0  0  0  0
   -2.1616    0.7452   -5.5424 H   0  0  0  0  0  0  0  0  0  0  0  0
   -1.0436   -0.3961   -6.3453 H   0  0  0  0  0  0  0  0  0  0  0  0
  2  3  1  0  0  0  0
  5 17  1  0  0  0  0
  1 27  1  0  0  0  0
  6 25  1  0  0  0  0
  4 19  1  0  0  0  0
 11 12  4  0  0  0  0
 21 22  4  0  0  0  0
 23 24  4  0  0  0  0
 13 14  4  0  0  0  0
  5  6  4  0  0  0  0
 18 21  4  0  0  0  0
 17 24  4  0  0  0  0
 22 23  4  0  0  0  0
 12 13  4  0  0  0  0
 38 39  1  0  0  0  0
  1  6  4  0  0  0  0
 35 36  1  0  0  0  0
 41 42  1  0  0  0  0
  2 11  4  0  0  0  0
  3  4  4  0  0  0  0
 25 26  1  0  0  0  0
  3 14  4  0  0  0  0
 18 19  1  0  0  0  0
  1  2  4  0  0  0  0
 17 18  4  0  0  0  0
  4  5  4  0  0  0  0
 26 27  1  0  0  0  0
 12 16  1  0  0  0  0
  7 21  1  0  0  0  0
  8 22  1  0  0  0  0
 11 15  1  0  0  0  0
 10 23  1  0  0  0  0
 20 24  1  0  0  0  0
 34 42  1  0  0  0  0
  9 13  1  0  0  0  0
 37 38  1  0  0  0  0
 35 45  1  0  0  0  0
 39 51  1  0  0  0  0
 41 52  1  0  0  0  0
 30 56  1  0  0  0  0
 36 37  1  0  0  0  0
 30 57  1  0  0  0  0
 36 47  1  0  0  0  0
 39 50  1  0  0  0  0
 35 44  1  0  0  0  0
 38 49  1  0  0  0  0
 41 53  1  0  0  0  0
 36 46  1  0  0  0  0
 30 55  1  0  0  0  0
 42 43  1  0  0  0  0
 38 48  1  0  0  0  0
 42 54  1  0  0  0  0
 40 41  1  0  0  0  0
 34 35  1  0  0  0  0
 39 40  1  0  0  0  0
 26 30  1  0  0  0  0
 32 33  2  0  0  0  0
 25 29  2  0  0  0  0
 27 28  2  0  0  0  0
 31 32  1  0  0  0  0
 31 40  1  0  0  0  0
 31 14  1  0  0  0  0
 31 19  1  0  0  0  0
 31 34  1  0  0  0  0
 31 37  1  0  0  0  0
M  END
$$$$
