compound_59
  GFN2-xTB geometry (ORCA XTB2, DDCOSMO(water))

 53 61  0  0  0  0  0  0  0  0999 V2000
   -0.2316   -2.8700    1.2205 Ru  0  0  0  0  0  0  0  0  0  0  0  0
    1.1202   -3.3980   -1.3069 C   0  0  0  0  0  0  0  0  0  0  0  0
    1.8570   -4.1607   -2.2343 C   0  0  0  0  0  0  0  0  0  0  0  0
    1.9247   -5.5379   -2.0690 C   0  0  0  0  0  0  0  0  0  0  0  0
    1.3182   -6.1215   -0.9676 C   0  0  0  0  0  0  0  0  0  0  0  0
    0.7132   -5.3038   -0.0354 C   0  0  0  0  0  0  0  0  0  0  0  0
    0.6226   -3.9843   -0.1937 N   0  0  0  0  0  0  0  0  0  0  0  0
    8.0411   -2.0115   -5.2261 C   0  0  0  0  0  0  0  0  0  0  0  0
    2.4568   -6.1257   -2.7994 H   0  0  0  0  0  0  0  0  0  0  0  0
    1.3450   -7.1869   -0.8167 H   0  0  0  0  0  0  0  0  0  0  0  0
    0.2629   -5.7125    0.8610 H   0  0  0  0  0  0  0  0  0  0  0  0
    0.7425   -1.9955   -1.3989 C   0  0  0  0  0  0  0  0  0  0  0  0
    0.8952   -1.1726   -2.5167 C   0  0  0  0  0  0  0  0  0  0  0  0
    0.4030    0.1167   -2.4862 C   0  0  0  0  0  0  0  0  0  0  0  0
   -0.2612    0.5833   -1.3618 C   0  0  0  0  0  0  0  0  0  0  0  0
   -0.4464   -0.2448   -0.2652 C   0  0  0  0  0  0  0  0  0  0  0  0
    0.0522   -1.5361   -0.2616 C   0  0  0  0  0  0  0  0  0  0  0  0
    1.3611   -1.5518   -3.4120 H   0  0  0  0  0  0  0  0  0  0  0  0
    0.5192    0.7560   -3.3475 H   0  0  0  0  0  0  0  0  0  0  0  0
   -0.6543    1.5890   -1.3451 H   0  0  0  0  0  0  0  0  0  0  0  0
   -1.0083    0.1217    0.5845 H   0  0  0  0  0  0  0  0  0  0  0  0
   -2.3799   -3.4154    0.1943 Cl  0  0  0  0  0  0  0  0  0  0  0  0
    1.0789   -1.7893    2.6160 C   0  0  0  0  0  0  0  0  0  0  0  0
   -0.2329   -1.3872    2.9838 C   0  0  0  0  0  0  0  0  0  0  0  0
   -1.1824   -2.3625    3.3041 C   0  0  0  0  0  0  0  0  0  0  0  0
   -0.7970   -3.7254    3.4729 C   0  0  0  0  0  0  0  0  0  0  0  0
    0.5024   -4.1140    3.1991 C   0  0  0  0  0  0  0  0  0  0  0  0
    1.4220   -3.1648    2.6677 C   0  0  0  0  0  0  0  0  0  0  0  0
    6.4268   -3.3532   -4.7962 H   0  0  0  0  0  0  0  0  0  0  0  0
    1.8374   -1.0423    2.4093 H   0  0  0  0  0  0  0  0  0  0  0  0
   -2.1902   -2.0661    3.5785 H   0  0  0  0  0  0  0  0  0  0  0  0
    2.4486   -3.4657    2.4821 H   0  0  0  0  0  0  0  0  0  0  0  0
   -1.5179   -4.4327    3.8628 H   0  0  0  0  0  0  0  0  0  0  0  0
    8.4284   -2.6142   -6.0441 H   0  0  0  0  0  0  0  0  0  0  0  0
    4.4444   -4.2875   -1.6276 H   0  0  0  0  0  0  0  0  0  0  0  0
    7.4137   -1.2276   -5.6448 H   0  0  0  0  0  0  0  0  0  0  0  0
    5.9708   -1.3093   -3.4960 H   0  0  0  0  0  0  0  0  0  0  0  0
    7.8865   -3.6559   -3.8508 H   0  0  0  0  0  0  0  0  0  0  0  0
    8.8810   -1.5411   -4.7193 H   0  0  0  0  0  0  0  0  0  0  0  0
    6.7511   -3.5692   -1.6014 H   0  0  0  0  0  0  0  0  0  0  0  0
    5.6955   -2.2116   -1.2067 H   0  0  0  0  0  0  0  0  0  0  0  0
    7.5001   -1.4823   -2.6449 H   0  0  0  0  0  0  0  0  0  0  0  0
    5.0907   -4.3859   -3.2648 H   0  0  0  0  0  0  0  0  0  0  0  0
    3.3983   -2.0701   -2.2024 H   0  0  0  0  0  0  0  0  0  0  0  0
    3.9145   -2.3103   -3.8936 H   0  0  0  0  0  0  0  0  0  0  0  0
    2.4984   -3.5937   -3.3013 O   0  0  0  0  0  0  0  0  0  0  0  0
    3.6547   -2.8157   -2.9630 C   0  0  0  0  0  0  0  0  0  0  0  0
    4.8036   -3.6943   -2.4723 C   0  0  0  0  0  0  0  0  0  0  0  0
    6.0118   -2.8782   -2.0119 C   0  0  0  0  0  0  0  0  0  0  0  0
    6.6792   -2.0397   -3.1032 C   0  0  0  0  0  0  0  0  0  0  0  0
    7.2417   -2.8718   -4.2541 C   0  0  0  0  0  0  0  0  0  0  0  0
   -0.4867   -0.3359    3.0392 H   0  0  0  0  0  0  0  0  0  0  0  0
    0.8243   -5.1293    3.3872 H   0  0  0  0  0  0  0  0  0  0  0  0
  2 12  1  0  0  0  0
  3 46  1  0  0  0  0
  5  6  4  0  0  0  0
 13 14  4  0  0  0  0
 26 27  4  0  0  0  0
 16 17  4  0  0  0  0
  4  5  4  0  0  0  0
 15 16  4  0  0  0  0
 14 15  4  0  0  0  0
  3  4  4  0  0  0  0
  6  7  4  0  0  0  0
 12 13  4  0  0  0  0
 24 25  4  0  0  0  0
 12 17  4  0  0  0  0
  2  3  4  0  0  0  0
  8 51  1  0  0  0  0
 47 48  1  0  0  0  0
 50 51  1  0  0  0  0
 48 49  1  0  0  0  0
  2  7  4  0  0  0  0
 49 50  1  0  0  0  0
 23 28  4  0  0  0  0
 23 24  4  0  0  0  0
 27 28  4  0  0  0  0
 25 26  4  0  0  0  0
 46 47  1  0  0  0  0
  5 10  1  0  0  0  0
  4  9  1  0  0  0  0
 13 18  1  0  0  0  0
 14 19  1  0  0  0  0
 15 20  1  0  0  0  0
 27 53  1  0  0  0  0
 16 21  1  0  0  0  0
 26 33  1  0  0  0  0
 24 52  1  0  0  0  0
  6 11  1  0  0  0  0
 23 30  1  0  0  0  0
 28 32  1  0  0  0  0
 25 31  1  0  0  0  0
  8 34  1  0  0  0  0
  8 36  1  0  0  0  0
  8 39  1  0  0  0  0
 43 48  1  0  0  0  0
 45 47  1  0  0  0  0
 37 50  1  0  0  0  0
 29 51  1  0  0  0  0
 40 49  1  0  0  0  0
 41 49  1  0  0  0  0
 38 51  1  0  0  0  0
 42 50  1  0  0  0  0
 35 48  1  0  0  0  0
 44 47  1  0  0  0  0
  1  7  1  0  0  0  0
  1 22  1  0  0  0  0
  1 27  1  0  0  0  0
  1 26  1  0  0  0  0
  1 17  1  0  0  0  0
  1 23  1  0  0  0  0
  1 24  1  0  0  0  0
  1 25  1  0  0  0  0
  1 28  1  0  0  0  0
M  END
$$$$
