compound_101
  GFN2-xTB geometry (ORCA XTB2, DDCOSMO(water))

 86 93  0  0  0  0  0  0  0  0999 V2000
    7.8965   -5.9780    0.0146 Ru  0  0  0  0  0  0  0  0  0  0  0  0
    9.6469   -4.6736   -1.1788 C   0  0  0  0  0  0  0  0  0  0  0  0
    9.1854   -5.5852   -2.1372 C   0  0  0  0  0  0  0  0  0  0  0  0
    9.2016   -6.9682   -1.8115 C   0  0  0  0  0  0  0  0  0  0  0  0
    9.7238   -7.4481   -0.6006 C   0  0  0  0  0  0  0  0  0  0  0  0
   10.0658   -6.4922    0.3909 C   0  0  0  0  0  0  0  0  0  0  0  0
   10.0485   -5.0963    0.1125 C   0  0  0  0  0  0  0  0  0  0  0  0
    5.6446   -6.4372    5.7495 H   0  0  0  0  0  0  0  0  0  0  0  0
    8.9377   -7.6858   -2.5767 H   0  0  0  0  0  0  0  0  0  0  0  0
    2.9601   -3.3040   -0.4327 C   0  0  0  0  0  0  0  0  0  0  0  0
   10.5304   -6.8214    1.3127 H   0  0  0  0  0  0  0  0  0  0  0  0
    5.6837   -4.8050    5.0510 H   0  0  0  0  0  0  0  0  0  0  0  0
   10.5457   -9.3219    0.9111 C   0  0  0  0  0  0  0  0  0  0  0  0
    3.3604   -5.4991    5.4280 H   0  0  0  0  0  0  0  0  0  0  0  0
    7.7909   -9.1617   -0.4160 H   0  0  0  0  0  0  0  0  0  0  0  0
    9.9625   -8.9363   -0.4484 C   0  0  0  0  0  0  0  0  0  0  0  0
    3.2483   -1.9711   -0.3712 F   0  0  0  0  0  0  0  0  0  0  0  0
    1.2299   -3.4493   -1.1450 P   0  0  0  0  0  0  0  0  0  0  0  0
    8.6695   -9.7100   -0.7655 C   0  0  0  0  0  0  0  0  0  0  0  0
    1.1246   -2.8062   -2.4597 O   0  0  0  0  0  0  0  0  0  0  0  0
    0.2903   -2.8971    0.0002 O   0  0  0  0  0  0  0  0  0  0  0  0
    0.0672   -1.9631   -0.0751 H   0  0  0  0  0  0  0  0  0  0  0  0
    0.9243   -4.9891   -1.1779 O   0  0  0  0  0  0  0  0  0  0  0  0
    7.8225   -9.7502    1.6388 H   0  0  0  0  0  0  0  0  0  0  0  0
    3.8155   -3.7952   -1.3880 F   0  0  0  0  0  0  0  0  0  0  0  0
    5.8570   -6.6447   -1.0751 Cl  0  0  0  0  0  0  0  0  0  0  0  0
    6.9876   -4.4093    0.8166 N   0  0  0  0  0  0  0  0  0  0  0  0
    6.5460   -4.4648    2.0994 C   0  0  0  0  0  0  0  0  0  0  0  0
    6.9024   -3.2641    0.1487 C   0  0  0  0  0  0  0  0  0  0  0  0
    6.1044   -3.3107    2.7469 C   0  0  0  0  0  0  0  0  0  0  0  0
    6.4305   -2.0965    0.7182 C   0  0  0  0  0  0  0  0  0  0  0  0
    6.0533   -2.1171    2.0537 C   0  0  0  0  0  0  0  0  0  0  0  0
    5.7179   -1.2172    2.5416 H   0  0  0  0  0  0  0  0  0  0  0  0
    7.2179   -3.2847   -0.8851 H   0  0  0  0  0  0  0  0  0  0  0  0
    6.3757   -1.1977    0.1277 H   0  0  0  0  0  0  0  0  0  0  0  0
    5.8213   -3.3365    3.7819 H   0  0  0  0  0  0  0  0  0  0  0  0
    6.6265   -5.8057    2.6201 C   0  0  0  0  0  0  0  0  0  0  0  0
    7.2183   -6.7135    1.7972 N   0  0  0  0  0  0  0  0  0  0  0  0
    7.1086   -7.8979    2.4325 C   0  0  0  0  0  0  0  0  0  0  0  0
    6.4645   -7.6989    3.6661 C   0  0  0  0  0  0  0  0  0  0  0  0
    6.1797   -6.3772    3.7796 N   0  0  0  0  0  0  0  0  0  0  0  0
    7.3883   -9.2275    2.3840 N   0  0  0  0  0  0  0  0  0  0  0  0
    6.9091   -9.7432    3.5533 C   0  0  0  0  0  0  0  0  0  0  0  0
    6.3542   -8.8608    4.3506 N   0  0  0  0  0  0  0  0  0  0  0  0
    0.6812   -5.3719   -0.3234 H   0  0  0  0  0  0  0  0  0  0  0  0
    5.4004   -5.8383    4.8706 C   0  0  0  0  0  0  0  0  0  0  0  0
    3.8898   -5.9587    4.5955 C   0  0  0  0  0  0  0  0  0  0  0  0
    3.5316   -5.2844    3.3057 C   0  0  0  0  0  0  0  0  0  0  0  0
    3.1728   -3.9416    3.2732 C   0  0  0  0  0  0  0  0  0  0  0  0
    2.9776   -3.2873    2.0714 C   0  0  0  0  0  0  0  0  0  0  0  0
    3.1423   -3.9825    0.8802 C   0  0  0  0  0  0  0  0  0  0  0  0
    3.4285   -5.3415    0.8999 C   0  0  0  0  0  0  0  0  0  0  0  0
    3.6312   -5.9825    2.1066 C   0  0  0  0  0  0  0  0  0  0  0  0
    3.0585   -3.3964    4.1964 H   0  0  0  0  0  0  0  0  0  0  0  0
    2.7211   -2.2402    2.0465 H   0  0  0  0  0  0  0  0  0  0  0  0
    3.6260   -7.0151    4.5491 H   0  0  0  0  0  0  0  0  0  0  0  0
    3.5164   -5.8829   -0.0312 H   0  0  0  0  0  0  0  0  0  0  0  0
    3.8671   -7.0361    2.1032 H   0  0  0  0  0  0  0  0  0  0  0  0
    6.9850  -10.7835    3.7932 H   0  0  0  0  0  0  0  0  0  0  0  0
   10.6925   -4.1658    1.1241 C   0  0  0  0  0  0  0  0  0  0  0  0
    7.6867   -4.0859   -3.4909 C   0  0  0  0  0  0  0  0  0  0  0  0
    8.5174   -6.2054   -4.5203 C   0  0  0  0  0  0  0  0  0  0  0  0
    9.7531   -3.6355   -1.4603 H   0  0  0  0  0  0  0  0  0  0  0  0
    8.8459   -5.0898   -3.5303 C   0  0  0  0  0  0  0  0  0  0  0  0
    9.9124   -8.9943    1.7298 H   0  0  0  0  0  0  0  0  0  0  0  0
   10.8641   -2.7327    0.6260 C   0  0  0  0  0  0  0  0  0  0  0  0
    9.9162   -4.1587    2.4460 C   0  0  0  0  0  0  0  0  0  0  0  0
    9.3433   -6.9046   -4.6236 H   0  0  0  0  0  0  0  0  0  0  0  0
    9.6341   -5.1640    2.7509 H   0  0  0  0  0  0  0  0  0  0  0  0
    9.0176   -3.5560    2.3425 H   0  0  0  0  0  0  0  0  0  0  0  0
   10.5283   -3.7190    3.2286 H   0  0  0  0  0  0  0  0  0  0  0  0
   11.3598   -2.1461    1.3953 H   0  0  0  0  0  0  0  0  0  0  0  0
    9.9003   -2.2718    0.4223 H   0  0  0  0  0  0  0  0  0  0  0  0
   11.4796   -2.6951   -0.2693 H   0  0  0  0  0  0  0  0  0  0  0  0
    8.3225   -5.7724   -5.4983 H   0  0  0  0  0  0  0  0  0  0  0  0
    7.6207   -6.7444   -4.2135 H   0  0  0  0  0  0  0  0  0  0  0  0
    8.5467   -9.8508   -1.8370 H   0  0  0  0  0  0  0  0  0  0  0  0
   11.5348   -8.8880    1.0352 H   0  0  0  0  0  0  0  0  0  0  0  0
    8.6937  -10.6978   -0.3135 H   0  0  0  0  0  0  0  0  0  0  0  0
   10.6532  -10.4024    0.9642 H   0  0  0  0  0  0  0  0  0  0  0  0
    7.9617   -3.1769   -2.9643 H   0  0  0  0  0  0  0  0  0  0  0  0
    6.8107   -4.5290   -3.0098 H   0  0  0  0  0  0  0  0  0  0  0  0
    7.3999   -3.8098   -4.5021 H   0  0  0  0  0  0  0  0  0  0  0  0
   11.6900   -4.5791    1.3178 H   0  0  0  0  0  0  0  0  0  0  0  0
   10.7054   -9.2066   -1.2099 H   0  0  0  0  0  0  0  0  0  0  0  0
    9.7335   -4.5610   -3.8998 H   0  0  0  0  0  0  0  0  0  0  0  0
 18 23  1  0  0  0  0
 18 21  1  0  0  0  0
 10 51  1  0  0  0  0
 30 32  1  0  0  0  0
 52 53  4  0  0  0  0
 10 17  1  0  0  0  0
 29 31  1  0  0  0  0
 49 50  4  0  0  0  0
 31 32  2  0  0  0  0
 50 51  4  0  0  0  0
 51 52  4  0  0  0  0
 47 48  1  0  0  0  0
 40 44  1  0  0  0  0
 10 25  1  0  0  0  0
 48 49  4  0  0  0  0
 48 53  4  0  0  0  0
 27 29  2  0  0  0  0
 40 41  1  0  0  0  0
 27 28  1  0  0  0  0
 28 30  2  0  0  0  0
 39 42  1  0  0  0  0
  2  3  4  0  0  0  0
 42 43  1  0  0  0  0
  4  5  4  0  0  0  0
  5 16  1  0  0  0  0
 37 41  1  0  0  0  0
 39 40  2  0  0  0  0
  3 64  1  0  0  0  0
  7 60  1  0  0  0  0
 38 39  1  0  0  0  0
 60 66  1  0  0  0  0
 62 64  1  0  0  0  0
 13 16  1  0  0  0  0
  2  7  4  0  0  0  0
  5  6  4  0  0  0  0
 60 67  1  0  0  0  0
  3  4  4  0  0  0  0
 61 64  1  0  0  0  0
  6  7  4  0  0  0  0
 37 38  2  0  0  0  0
 16 19  1  0  0  0  0
 46 47  1  0  0  0  0
 43 59  1  0  0  0  0
 30 36  1  0  0  0  0
 21 22  1  0  0  0  0
 10 18  1  0  0  0  0
 31 35  1  0  0  0  0
 32 33  1  0  0  0  0
 49 54  1  0  0  0  0
 23 45  1  0  0  0  0
 50 55  1  0  0  0  0
 24 42  1  0  0  0  0
 53 58  1  0  0  0  0
 28 37  1  0  0  0  0
 52 57  1  0  0  0  0
  2 63  1  0  0  0  0
 29 34  1  0  0  0  0
  4  9  1  0  0  0  0
  6 11  1  0  0  0  0
 13 65  1  0  0  0  0
 61 81  1  0  0  0  0
 67 71  1  0  0  0  0
 12 46  1  0  0  0  0
 19 79  1  0  0  0  0
 61 83  1  0  0  0  0
 67 70  1  0  0  0  0
 66 72  1  0  0  0  0
 62 68  1  0  0  0  0
 13 80  1  0  0  0  0
 66 74  1  0  0  0  0
 62 75  1  0  0  0  0
 13 78  1  0  0  0  0
 66 73  1  0  0  0  0
 19 77  1  0  0  0  0
 67 69  1  0  0  0  0
 14 47  1  0  0  0  0
 47 56  1  0  0  0  0
 62 76  1  0  0  0  0
  8 46  1  0  0  0  0
 15 19  1  0  0  0  0
 61 82  1  0  0  0  0
 60 84  1  0  0  0  0
 64 86  1  0  0  0  0
 16 85  1  0  0  0  0
 41 46  1  0  0  0  0
 18 20  2  0  0  0  0
 43 44  2  0  0  0  0
  1 26  1  0  0  0  0
  1  4  1  0  0  0  0
  1  2  1  0  0  0  0
  1  6  1  0  0  0  0
  1 27  1  0  0  0  0
  1 38  1  0  0  0  0
M  END
$$$$
