compound_41
  GFN2-xTB geometry (ORCA XTB2, DDCOSMO(water))

 36 44  0  0  0  0  0  0  0  0999 V2000
   -0.5455   -5.8042    3.9851 C   0  0  0  0  0  0  0  0  0  0  0  0
   -0.3809   -0.9322   -0.0099 N   0  0  0  0  0  0  0  0  0  0  0  0
   -0.3131   -6.8597    3.9821 H   0  0  0  0  0  0  0  0  0  0  0  0
    1.4594   -4.8608    4.2527 H   0  0  0  0  0  0  0  0  0  0  0  0
   -2.7795   -5.8128    4.1923 H   0  0  0  0  0  0  0  0  0  0  0  0
    0.0915   -2.6013    4.6801 H   0  0  0  0  0  0  0  0  0  0  0  0
    1.5185   -6.0456    1.5374 H   0  0  0  0  0  0  0  0  0  0  0  0
    3.4889   -5.8077    0.0513 H   0  0  0  0  0  0  0  0  0  0  0  0
   -1.8580   -5.2484    4.1316 C   0  0  0  0  0  0  0  0  0  0  0  0
    3.7337   -3.7277   -1.3114 H   0  0  0  0  0  0  0  0  0  0  0  0
   -1.5233   -0.4719    0.5732 C   0  0  0  0  0  0  0  0  0  0  0  0
   -0.1965   -2.1183    0.5544 C   0  0  0  0  0  0  0  0  0  0  0  0
   -2.0015   -1.4336    1.5024 C   0  0  0  0  0  0  0  0  0  0  0  0
   -1.1429   -2.4698    1.4783 N   0  0  0  0  0  0  0  0  0  0  0  0
   -1.7248   -3.8608    4.3544 C   0  0  0  0  0  0  0  0  0  0  0  0
   -0.8692   -4.3176    2.3364 Ru  0  0  0  0  0  0  0  0  0  0  0  0
    0.8617   -3.0731    0.3362 C   0  0  0  0  0  0  0  0  0  0  0  0
   -2.5245   -3.1759    4.6017 H   0  0  0  0  0  0  0  0  0  0  0  0
    0.7404   -4.2024    1.0685 N   0  0  0  0  0  0  0  0  0  0  0  0
    1.9699   -1.9551   -1.0927 H   0  0  0  0  0  0  0  0  0  0  0  0
    1.6699   -5.1497    0.9482 C   0  0  0  0  0  0  0  0  0  0  0  0
    2.7616   -5.0159    0.1112 C   0  0  0  0  0  0  0  0  0  0  0  0
    2.8958   -3.8576   -0.6461 C   0  0  0  0  0  0  0  0  0  0  0  0
    1.9326   -2.8750   -0.5343 C   0  0  0  0  0  0  0  0  0  0  0  0
   -1.8651   -5.0937    1.0088 C   0  0  0  0  0  0  0  0  0  0  0  0
   -2.5380   -5.5326    0.1761 O   0  0  0  0  0  0  0  0  0  0  0  0
    0.3860   -4.7489    4.1780 C   0  0  0  0  0  0  0  0  0  0  0  0
   -0.3292   -3.5480    4.3665 C   0  0  0  0  0  0  0  0  0  0  0  0
   -2.2769    0.7109    0.4328 C   0  0  0  0  0  0  0  0  0  0  0  0
   -3.3808    0.8490    1.1834 N   0  0  0  0  0  0  0  0  0  0  0  0
   -3.7131   -0.1238    2.0205 C   0  0  0  0  0  0  0  0  0  0  0  0
   -3.1092   -1.2708    2.2502 N   0  0  0  0  0  0  0  0  0  0  0  0
   -4.6118    0.0542    2.5990 H   0  0  0  0  0  0  0  0  0  0  0  0
   -1.1294    1.5872   -0.9862 H   0  0  0  0  0  0  0  0  0  0  0  0
   -2.5338    2.5012   -0.4772 H   0  0  0  0  0  0  0  0  0  0  0  0
   -1.9373    1.6977   -0.4020 N   0  0  0  0  0  0  0  0  0  0  0  0
 29 36  1  0  0  0  0
 31 32  4  0  0  0  0
 23 24  1  0  0  0  0
 21 22  1  0  0  0  0
 13 32  1  0  0  0  0
 17 19  1  0  0  0  0
 30 31  4  0  0  0  0
  2 12  2  0  0  0  0
 22 23  2  0  0  0  0
 17 24  2  0  0  0  0
 19 21  2  0  0  0  0
  2 11  1  0  0  0  0
 12 14  1  0  0  0  0
 29 30  4  0  0  0  0
 11 29  4  0  0  0  0
 13 14  4  0  0  0  0
 27 28  4  0  0  0  0
  9 15  4  0  0  0  0
 11 13  4  0  0  0  0
  1 27  4  0  0  0  0
 15 28  4  0  0  0  0
 34 36  1  0  0  0  0
 35 36  1  0  0  0  0
  1  9  4  0  0  0  0
 20 24  1  0  0  0  0
  8 22  1  0  0  0  0
 10 23  1  0  0  0  0
  1  3  1  0  0  0  0
 12 17  1  0  0  0  0
 15 18  1  0  0  0  0
  4 27  1  0  0  0  0
  5  9  1  0  0  0  0
  6 28  1  0  0  0  0
  7 21  1  0  0  0  0
 31 33  1  0  0  0  0
 25 26  2  0  0  0  0
 16 19  1  0  0  0  0
 16 25  1  0  0  0  0
 16  1  1  0  0  0  0
 16  9  1  0  0  0  0
 16 15  1  0  0  0  0
 16 27  1  0  0  0  0
 16 28  1  0  0  0  0
 16 14  1  0  0  0  0
M  END
$$$$
