compound_63
  GFN2-xTB geometry (ORCA XTB2, DDCOSMO(water))

 68 75  0  0  0  0  0  0  0  0999 V2000
   -0.5588   -2.8353    1.1875 Ru  0  0  0  0  0  0  0  0  0  0  0  0
    1.6822   -3.0900   -0.6715 C   0  0  0  0  0  0  0  0  0  0  0  0
    2.7602   -3.7050   -1.3059 C   0  0  0  0  0  0  0  0  0  0  0  0
    3.1284   -4.9845   -0.9408 C   0  0  0  0  0  0  0  0  0  0  0  0
    2.3949   -5.6357    0.0435 C   0  0  0  0  0  0  0  0  0  0  0  0
    1.3402   -4.9704    0.6359 C   0  0  0  0  0  0  0  0  0  0  0  0
    0.9983   -3.7247    0.3087 N   0  0  0  0  0  0  0  0  0  0  0  0
    2.1074   -4.2634    3.4783 H   0  0  0  0  0  0  0  0  0  0  0  0
    3.2881   -3.1751   -2.0803 H   0  0  0  0  0  0  0  0  0  0  0  0
    2.6322   -6.6409    0.3479 H   0  0  0  0  0  0  0  0  0  0  0  0
    0.7340   -5.4532    1.3929 H   0  0  0  0  0  0  0  0  0  0  0  0
    1.1228   -1.7849   -0.9781 C   0  0  0  0  0  0  0  0  0  0  0  0
    1.5948   -0.9127   -1.9546 C   0  0  0  0  0  0  0  0  0  0  0  0
    0.9212    0.2729   -2.2155 C   0  0  0  0  0  0  0  0  0  0  0  0
   -0.2359    0.5565   -1.4882 C   0  0  0  0  0  0  0  0  0  0  0  0
   -0.6974   -0.3077   -0.5104 C   0  0  0  0  0  0  0  0  0  0  0  0
   -0.0263   -1.4863   -0.2215 C   0  0  0  0  0  0  0  0  0  0  0  0
    2.4681   -1.1667   -2.5347 H   0  0  0  0  0  0  0  0  0  0  0  0
    3.9613   -5.4734   -1.4191 H   0  0  0  0  0  0  0  0  0  0  0  0
   -0.7705    1.4754   -1.6802 H   0  0  0  0  0  0  0  0  0  0  0  0
   -1.6042   -0.0548    0.0223 H   0  0  0  0  0  0  0  0  0  0  0  0
   -1.9658   -3.9695   -0.4823 Cl  0  0  0  0  0  0  0  0  0  0  0  0
   -0.6395   -1.2476    2.7437 C   0  0  0  0  0  0  0  0  0  0  0  0
   -1.9795   -1.6910    2.6293 C   0  0  0  0  0  0  0  0  0  0  0  0
   -2.2099   -3.0760    2.7789 C   0  0  0  0  0  0  0  0  0  0  0  0
   -1.2029   -3.9584    3.2417 C   0  0  0  0  0  0  0  0  0  0  0  0
    0.1051   -3.5049    3.4208 C   0  0  0  0  0  0  0  0  0  0  0  0
    0.4006   -2.1512    3.0810 C   0  0  0  0  0  0  0  0  0  0  0  0
   -2.6904    0.2409    2.1116 H   0  0  0  0  0  0  0  0  0  0  0  0
   -0.4179   -0.1883    2.6610 H   0  0  0  0  0  0  0  0  0  0  0  0
   -3.2238   -3.4562    2.6933 H   0  0  0  0  0  0  0  0  0  0  0  0
    1.3992   -1.7671    3.2645 H   0  0  0  0  0  0  0  0  0  0  0  0
   -1.4699   -4.9766    3.4957 H   0  0  0  0  0  0  0  0  0  0  0  0
   -3.1140   -0.7069    2.4603 C   0  0  0  0  0  0  0  0  0  0  0  0
   -4.1469   -1.1780    1.4337 C   0  0  0  0  0  0  0  0  0  0  0  0
   -3.7730   -0.4665    3.8233 C   0  0  0  0  0  0  0  0  0  0  0  0
   -3.0442   -0.0877    4.5354 H   0  0  0  0  0  0  0  0  0  0  0  0
   -4.1904   -1.3928    4.2116 H   0  0  0  0  0  0  0  0  0  0  0  0
   -4.5749    0.2594    3.7221 H   0  0  0  0  0  0  0  0  0  0  0  0
   -3.6548   -1.5442    0.5295 H   0  0  0  0  0  0  0  0  0  0  0  0
   -4.8042   -0.3579    1.1590 H   0  0  0  0  0  0  0  0  0  0  0  0
   -4.7600   -1.9839    1.8303 H   0  0  0  0  0  0  0  0  0  0  0  0
    1.1692   -4.3711    4.0187 C   0  0  0  0  0  0  0  0  0  0  0  0
    0.8733   -5.4168    4.0207 H   0  0  0  0  0  0  0  0  0  0  0  0
    1.3386   -4.0586    5.0493 H   0  0  0  0  0  0  0  0  0  0  0  0
    1.4090    1.1990   -3.2482 C   0  0  0  0  0  0  0  0  0  0  0  0
    0.5229    1.8404   -4.1102 C   0  0  0  0  0  0  0  0  0  0  0  0
    0.9863    2.7026   -5.0851 C   0  0  0  0  0  0  0  0  0  0  0  0
    2.3446    2.9592   -5.2254 C   0  0  0  0  0  0  0  0  0  0  0  0
    3.2286    2.3213   -4.3635 C   0  0  0  0  0  0  0  0  0  0  0  0
    2.7712    1.4535   -3.3913 C   0  0  0  0  0  0  0  0  0  0  0  0
   -0.5359    1.6422   -4.0277 H   0  0  0  0  0  0  0  0  0  0  0  0
    0.2830    3.1849   -5.7490 H   0  0  0  0  0  0  0  0  0  0  0  0
    3.4721    0.9812   -2.7194 H   0  0  0  0  0  0  0  0  0  0  0  0
    4.2882    2.5121   -4.4547 H   0  0  0  0  0  0  0  0  0  0  0  0
    2.8492    3.8596   -6.3145 C   0  0  0  0  0  0  0  0  0  0  0  0
    3.1603    3.0495   -7.5791 C   0  0  0  0  0  0  0  0  0  0  0  0
    3.6773    3.9329   -8.7114 C   0  0  0  0  0  0  0  0  0  0  0  0
    3.9901    3.1212   -9.9628 C   0  0  0  0  0  0  0  0  0  0  0  0
    4.7503    2.3728   -9.7506 H   0  0  0  0  0  0  0  0  0  0  0  0
    4.3552    3.7673  -10.7573 H   0  0  0  0  0  0  0  0  0  0  0  0
    3.0980    2.6097  -10.3174 H   0  0  0  0  0  0  0  0  0  0  0  0
    3.7571    4.3689   -5.9857 H   0  0  0  0  0  0  0  0  0  0  0  0
    2.0978    4.6153   -6.5510 H   0  0  0  0  0  0  0  0  0  0  0  0
    2.2543    2.5320   -7.9037 H   0  0  0  0  0  0  0  0  0  0  0  0
    3.9062    2.2877   -7.3408 H   0  0  0  0  0  0  0  0  0  0  0  0
    4.5795    4.4518   -8.3802 H   0  0  0  0  0  0  0  0  0  0  0  0
    2.9273    4.6909   -8.9483 H   0  0  0  0  0  0  0  0  0  0  0  0
  2 12  1  0  0  0  0
 14 46  1  0  0  0  0
  5  6  4  0  0  0  0
  3  4  4  0  0  0  0
 50 51  4  0  0  0  0
 47 48  4  0  0  0  0
 15 16  4  0  0  0  0
 16 17  4  0  0  0  0
 27 43  1  0  0  0  0
 13 14  4  0  0  0  0
 48 49  4  0  0  0  0
  4  5  4  0  0  0  0
 49 50  4  0  0  0  0
 49 56  1  0  0  0  0
 12 13  4  0  0  0  0
 46 47  4  0  0  0  0
 46 51  4  0  0  0  0
  2  3  4  0  0  0  0
 14 15  4  0  0  0  0
 26 27  4  0  0  0  0
  6  7  4  0  0  0  0
 24 34  1  0  0  0  0
 12 17  4  0  0  0  0
 24 25  4  0  0  0  0
 58 59  1  0  0  0  0
 57 58  1  0  0  0  0
 23 24  4  0  0  0  0
 25 26  4  0  0  0  0
  2  7  4  0  0  0  0
 23 28  4  0  0  0  0
 34 35  1  0  0  0  0
 34 36  1  0  0  0  0
 56 57  1  0  0  0  0
 27 28  4  0  0  0  0
  3  9  1  0  0  0  0
  5 10  1  0  0  0  0
  4 19  1  0  0  0  0
 13 18  1  0  0  0  0
 51 54  1  0  0  0  0
 47 52  1  0  0  0  0
 15 20  1  0  0  0  0
 50 55  1  0  0  0  0
 48 53  1  0  0  0  0
 16 21  1  0  0  0  0
 26 33  1  0  0  0  0
  6 11  1  0  0  0  0
 23 30  1  0  0  0  0
 28 32  1  0  0  0  0
 25 31  1  0  0  0  0
 35 41  1  0  0  0  0
 36 39  1  0  0  0  0
 43 44  1  0  0  0  0
 36 37  1  0  0  0  0
 59 61  1  0  0  0  0
 35 42  1  0  0  0  0
 59 60  1  0  0  0  0
 36 38  1  0  0  0  0
 59 62  1  0  0  0  0
  8 43  1  0  0  0  0
 43 45  1  0  0  0  0
 56 63  1  0  0  0  0
 56 64  1  0  0  0  0
 58 67  1  0  0  0  0
 58 68  1  0  0  0  0
 57 66  1  0  0  0  0
 35 40  1  0  0  0  0
 57 65  1  0  0  0  0
 29 34  1  0  0  0  0
  1  7  1  0  0  0  0
  1 24  1  0  0  0  0
  1 27  1  0  0  0  0
  1 22  1  0  0  0  0
  1 26  1  0  0  0  0
  1 17  1  0  0  0  0
  1 23  1  0  0  0  0
M  END
$$$$
