compound_64
  GFN2-xTB geometry (ORCA XTB2, DDCOSMO(water))

 56 63  0  0  0  0  0  0  0  0999 V2000
   -0.5582   -2.8032    1.1946 Ru  0  0  0  0  0  0  0  0  0  0  0  0
    1.4770   -3.0870   -0.8849 C   0  0  0  0  0  0  0  0  0  0  0  0
    2.4786   -3.7141   -1.6238 C   0  0  0  0  0  0  0  0  0  0  0  0
    2.8779   -4.9922   -1.2874 C   0  0  0  0  0  0  0  0  0  0  0  0
    2.2503   -5.6297   -0.2242 C   0  0  0  0  0  0  0  0  0  0  0  0
    1.2668   -4.9532    0.4694 C   0  0  0  0  0  0  0  0  0  0  0  0
    0.8962   -3.7093    0.1673 N   0  0  0  0  0  0  0  0  0  0  0  0
    2.3206   -4.2084    3.2241 H   0  0  0  0  0  0  0  0  0  0  0  0
    2.9249   -3.1943   -2.4545 H   0  0  0  0  0  0  0  0  0  0  0  0
    2.5148   -6.6327    0.0643 H   0  0  0  0  0  0  0  0  0  0  0  0
    0.7423   -5.4261    1.2908 H   0  0  0  0  0  0  0  0  0  0  0  0
    0.8999   -1.7782   -1.1397 C   0  0  0  0  0  0  0  0  0  0  0  0
    1.2706   -0.9179   -2.1689 C   0  0  0  0  0  0  0  0  0  0  0  0
    0.5844    0.2733   -2.3629 C   0  0  0  0  0  0  0  0  0  0  0  0
   -0.4806    0.5763   -1.5133 C   0  0  0  0  0  0  0  0  0  0  0  0
   -0.8407   -0.2764   -0.4843 C   0  0  0  0  0  0  0  0  0  0  0  0
   -0.1565   -1.4625   -0.2641 C   0  0  0  0  0  0  0  0  0  0  0  0
    2.0712   -1.1858   -2.8405 H   0  0  0  0  0  0  0  0  0  0  0  0
    3.6535   -5.4899   -1.8462 H   0  0  0  0  0  0  0  0  0  0  0  0
   -1.0222    1.5008   -1.6510 H   0  0  0  0  0  0  0  0  0  0  0  0
   -1.6800   -0.0090    0.1435 H   0  0  0  0  0  0  0  0  0  0  0  0
   -2.1321   -3.9209   -0.3309 Cl  0  0  0  0  0  0  0  0  0  0  0  0
   -0.4952   -1.2086    2.7484 C   0  0  0  0  0  0  0  0  0  0  0  0
   -1.8383   -1.6558    2.7599 C   0  0  0  0  0  0  0  0  0  0  0  0
   -2.0506   -3.0410    2.9355 C   0  0  0  0  0  0  0  0  0  0  0  0
   -1.0023   -3.9202    3.3001 C   0  0  0  0  0  0  0  0  0  0  0  0
    0.3165   -3.4633    3.3508 C   0  0  0  0  0  0  0  0  0  0  0  0
    0.5749   -2.1087    2.9865 C   0  0  0  0  0  0  0  0  0  0  0  0
   -2.5977    0.2753    2.3126 H   0  0  0  0  0  0  0  0  0  0  0  0
   -0.2854   -0.1490    2.6436 H   0  0  0  0  0  0  0  0  0  0  0  0
   -3.0674   -3.4231    2.9476 H   0  0  0  0  0  0  0  0  0  0  0  0
    1.5851   -1.7217    3.0751 H   0  0  0  0  0  0  0  0  0  0  0  0
   -1.2409   -4.9386    3.5801 H   0  0  0  0  0  0  0  0  0  0  0  0
   -2.9863   -0.6747    2.6942 C   0  0  0  0  0  0  0  0  0  0  0  0
   -4.1037   -1.1460    1.7602 C   0  0  0  0  0  0  0  0  0  0  0  0
   -3.5245   -0.4395    4.1102 C   0  0  0  0  0  0  0  0  0  0  0  0
   -2.7371   -0.0613    4.7572 H   0  0  0  0  0  0  0  0  0  0  0  0
   -3.9052   -1.3675    4.5307 H   0  0  0  0  0  0  0  0  0  0  0  0
   -4.3332    0.2854    4.0814 H   0  0  0  0  0  0  0  0  0  0  0  0
   -3.6919   -1.5029    0.8133 H   0  0  0  0  0  0  0  0  0  0  0  0
   -4.7878   -0.3284    1.5510 H   0  0  0  0  0  0  0  0  0  0  0  0
   -4.6740   -1.9587    2.2039 H   0  0  0  0  0  0  0  0  0  0  0  0
    1.4349   -4.3266    3.8449 C   0  0  0  0  0  0  0  0  0  0  0  0
    1.1472   -5.3744    3.8657 H   0  0  0  0  0  0  0  0  0  0  0  0
    1.6929   -4.0203    4.8589 H   0  0  0  0  0  0  0  0  0  0  0  0
    0.9614    1.1860   -3.4532 C   0  0  0  0  0  0  0  0  0  0  0  0
   -0.0143    1.8244   -4.2157 C   0  0  0  0  0  0  0  0  0  0  0  0
    0.3416    2.6758   -5.2455 C   0  0  0  0  0  0  0  0  0  0  0  0
    1.6775    2.9077   -5.5282 C   0  0  0  0  0  0  0  0  0  0  0  0
    2.6560    2.2803   -4.7749 C   0  0  0  0  0  0  0  0  0  0  0  0
    2.3020    1.4253   -3.7478 C   0  0  0  0  0  0  0  0  0  0  0  0
   -1.0575    1.6325   -4.0115 H   0  0  0  0  0  0  0  0  0  0  0  0
   -0.4267    3.1581   -5.8317 H   0  0  0  0  0  0  0  0  0  0  0  0
    3.0678    0.9509   -3.1529 H   0  0  0  0  0  0  0  0  0  0  0  0
    3.6991    2.4603   -4.9884 H   0  0  0  0  0  0  0  0  0  0  0  0
    1.9537    3.5738   -6.3315 H   0  0  0  0  0  0  0  0  0  0  0  0
  2 12  1  0  0  0  0
 14 46  1  0  0  0  0
  5  6  4  0  0  0  0
  3  4  4  0  0  0  0
 50 51  4  0  0  0  0
 47 48  4  0  0  0  0
 15 16  4  0  0  0  0
 49 50  4  0  0  0  0
 48 49  4  0  0  0  0
 16 17  4  0  0  0  0
 27 43  1  0  0  0  0
 13 14  4  0  0  0  0
  4  5  4  0  0  0  0
 12 13  4  0  0  0  0
 46 47  4  0  0  0  0
 46 51  4  0  0  0  0
  2  3  4  0  0  0  0
 14 15  4  0  0  0  0
  6  7  4  0  0  0  0
 26 27  4  0  0  0  0
 24 34  1  0  0  0  0
 12 17  4  0  0  0  0
 24 25  4  0  0  0  0
 23 24  4  0  0  0  0
 25 26  4  0  0  0  0
  2  7  4  0  0  0  0
 23 28  4  0  0  0  0
 34 35  1  0  0  0  0
 34 36  1  0  0  0  0
 27 28  4  0  0  0  0
  5 10  1  0  0  0  0
  3  9  1  0  0  0  0
  4 19  1  0  0  0  0
 13 18  1  0  0  0  0
 49 56  1  0  0  0  0
 51 54  1  0  0  0  0
 50 55  1  0  0  0  0
 48 53  1  0  0  0  0
 47 52  1  0  0  0  0
 15 20  1  0  0  0  0
 16 21  1  0  0  0  0
 26 33  1  0  0  0  0
  6 11  1  0  0  0  0
 23 30  1  0  0  0  0
 28 32  1  0  0  0  0
 25 31  1  0  0  0  0
 35 41  1  0  0  0  0
 36 39  1  0  0  0  0
 43 44  1  0  0  0  0
 36 37  1  0  0  0  0
 35 42  1  0  0  0  0
 36 38  1  0  0  0  0
  8 43  1  0  0  0  0
 43 45  1  0  0  0  0
 35 40  1  0  0  0  0
 29 34  1  0  0  0  0
  1  7  1  0  0  0  0
  1 22  1  0  0  0  0
  1 24  1  0  0  0  0
  1 27  1  0  0  0  0
  1 26  1  0  0  0  0
  1 17  1  0  0  0  0
  1 23  1  0  0  0  0
M  END
$$$$
