compound_89
  GFN2-xTB geometry (ORCA XTB2, DDCOSMO(water))

 38 45  0  0  0  0  0  0  0  0999 V2000
   -0.9923   -0.5984    0.8151 Ru  0  0  0  0  0  0  0  0  0  0  0  0
    0.0006   -0.3337   -1.2038 C   0  0  0  0  0  0  0  0  0  0  0  0
   -0.9354    0.7017   -1.0144 C   0  0  0  0  0  0  0  0  0  0  0  0
   -0.8481    1.5757    0.1008 C   0  0  0  0  0  0  0  0  0  0  0  0
    0.1751    1.4226    1.0520 C   0  0  0  0  0  0  0  0  0  0  0  0
    1.1244    0.3738    0.8628 C   0  0  0  0  0  0  0  0  0  0  0  0
    1.0427   -0.4781   -0.2407 C   0  0  0  0  0  0  0  0  0  0  0  0
   -1.7030    0.8804   -1.7580 H   0  0  0  0  0  0  0  0  0  0  0  0
   -1.8932   -0.6897   -3.3721 H   0  0  0  0  0  0  0  0  0  0  0  0
   -1.5387    2.4091    0.1831 H   0  0  0  0  0  0  0  0  0  0  0  0
    1.9483    0.2811    1.5629 H   0  0  0  0  0  0  0  0  0  0  0  0
    0.3124    0.4618   -3.7929 H   0  0  0  0  0  0  0  0  0  0  0  0
    1.1468    3.0934    1.9174 H   0  0  0  0  0  0  0  0  0  0  0  0
    0.7975   -0.4766   -3.5353 C   0  0  0  0  0  0  0  0  0  0  0  0
   -1.3440   -2.3344   -3.6775 H   0  0  0  0  0  0  0  0  0  0  0  0
    1.8080   -1.2315   -0.3981 H   0  0  0  0  0  0  0  0  0  0  0  0
    0.3493    2.3962    2.1745 C   0  0  0  0  0  0  0  0  0  0  0  0
    0.6312    1.8869    3.0948 H   0  0  0  0  0  0  0  0  0  0  0  0
   -0.5643    2.9582    2.3521 H   0  0  0  0  0  0  0  0  0  0  0  0
    0.0051   -1.1997   -2.4394 C   0  0  0  0  0  0  0  0  0  0  0  0
    0.5229   -2.1334   -2.1888 H   0  0  0  0  0  0  0  0  0  0  0  0
   -2.0159   -1.9118   -2.1018 H   0  0  0  0  0  0  0  0  0  0  0  0
    1.8099   -0.2654   -3.2000 H   0  0  0  0  0  0  0  0  0  0  0  0
    0.8462   -1.1006   -4.4229 H   0  0  0  0  0  0  0  0  0  0  0  0
   -1.4009   -1.5504   -2.9280 C   0  0  0  0  0  0  0  0  0  0  0  0
   -1.1235   -1.0209    3.4911 I   0  0  0  0  0  0  0  0  0  0  0  0
   -1.1051   -2.7231    0.5858 O   0  0  0  0  0  0  0  0  0  0  0  0
   -2.2914   -3.3209    0.5535 N   0  0  0  0  0  0  0  0  0  0  0  0
   -3.4410   -2.6074    0.5281 C   0  0  0  0  0  0  0  0  0  0  0  0
   -4.6581   -3.2864    0.4408 C   0  0  0  0  0  0  0  0  0  0  0  0
   -4.6843   -4.6606    0.4000 C   0  0  0  0  0  0  0  0  0  0  0  0
   -3.4800   -5.3625    0.4462 C   0  0  0  0  0  0  0  0  0  0  0  0
   -2.3026   -4.6662    0.5219 C   0  0  0  0  0  0  0  0  0  0  0  0
   -1.3272   -5.1255    0.5603 H   0  0  0  0  0  0  0  0  0  0  0  0
   -5.5541   -2.6894    0.4147 H   0  0  0  0  0  0  0  0  0  0  0  0
   -5.6237   -5.1833    0.3384 H   0  0  0  0  0  0  0  0  0  0  0  0
   -3.4555   -6.4379    0.4251 H   0  0  0  0  0  0  0  0  0  0  0  0
   -3.3667   -0.8853    0.5893 S   0  0  0  0  0  0  0  0  0  0  0  0
 32 33  2  0  0  0  0
 30 31  2  0  0  0  0
 28 33  1  0  0  0  0
  5 17  1  0  0  0  0
 28 29  1  0  0  0  0
 27 28  1  0  0  0  0
 31 32  1  0  0  0  0
  6  7  4  0  0  0  0
 29 30  1  0  0  0  0
  2 20  1  0  0  0  0
  4  5  4  0  0  0  0
  2  3  4  0  0  0  0
 20 25  1  0  0  0  0
  3  4  4  0  0  0  0
 14 20  1  0  0  0  0
  2  7  4  0  0  0  0
  5  6  4  0  0  0  0
 32 37  1  0  0  0  0
 31 36  1  0  0  0  0
 30 35  1  0  0  0  0
 33 34  1  0  0  0  0
  3  8  1  0  0  0  0
  6 11  1  0  0  0  0
  7 16  1  0  0  0  0
  4 10  1  0  0  0  0
 15 25  1  0  0  0  0
 14 24  1  0  0  0  0
  9 25  1  0  0  0  0
 14 23  1  0  0  0  0
 17 19  1  0  0  0  0
 12 14  1  0  0  0  0
 17 18  1  0  0  0  0
 13 17  1  0  0  0  0
 22 25  1  0  0  0  0
 20 21  1  0  0  0  0
 29 38  2  0  0  0  0
  1  2  1  0  0  0  0
  1  3  1  0  0  0  0
  1  4  1  0  0  0  0
  1  5  1  0  0  0  0
  1  6  1  0  0  0  0
  1  7  1  0  0  0  0
  1 27  1  0  0  0  0
  1 26  1  0  0  0  0
  1 38  1  0  0  0  0
M  END
$$$$
