compound_109
  GFN2-xTB geometry (ORCA XTB2, DDCOSMO(water))

 44 50  0  0  0  0  0  0  0  0999 V2000
    9.2675   -3.9065   -1.2055 Ru  0  0  0  0  0  0  0  0  0  0  0  0
   11.5663   -4.2998   -1.0314 C   0  0  0  0  0  0  0  0  0  0  0  0
   11.1308   -4.7262   -2.3073 C   0  0  0  0  0  0  0  0  0  0  0  0
   10.0986   -5.6762   -2.4598 C   0  0  0  0  0  0  0  0  0  0  0  0
    9.4528   -6.1321   -1.2798 C   0  0  0  0  0  0  0  0  0  0  0  0
    9.8810   -5.7103    0.0020 C   0  0  0  0  0  0  0  0  0  0  0  0
   10.9700   -4.8105    0.1411 C   0  0  0  0  0  0  0  0  0  0  0  0
    7.4807   -2.2534    0.5569 N   0  0  0  0  0  0  0  0  0  0  0  0
   10.3823   -5.7391   -4.5601 H   0  0  0  0  0  0  0  0  0  0  0  0
    7.2384   -1.3127    1.5137 C   0  0  0  0  0  0  0  0  0  0  0  0
    9.4396   -6.1550    0.8871 H   0  0  0  0  0  0  0  0  0  0  0  0
    5.9752   -0.9743    1.8630 C   0  0  0  0  0  0  0  0  0  0  0  0
    9.9341   -7.7288   -3.8780 C   0  0  0  0  0  0  0  0  0  0  0  0
    8.7694   -2.5384    0.3311 O   0  0  0  0  0  0  0  0  0  0  0  0
   10.9548   -7.9811   -3.6027 H   0  0  0  0  0  0  0  0  0  0  0  0
   11.9307   -3.4664    1.4992 H   0  0  0  0  0  0  0  0  0  0  0  0
    8.6700   -6.8795   -1.3523 H   0  0  0  0  0  0  0  0  0  0  0  0
   11.6527   -4.3653   -3.1887 H   0  0  0  0  0  0  0  0  0  0  0  0
   11.5152   -4.4712    1.4894 C   0  0  0  0  0  0  0  0  0  0  0  0
   12.4170   -3.6329   -0.9541 H   0  0  0  0  0  0  0  0  0  0  0  0
    6.8914   -4.0279   -1.3056 S   0  0  0  0  0  0  0  0  0  0  0  0
    9.7480   -8.0812   -4.8883 H   0  0  0  0  0  0  0  0  0  0  0  0
    9.7261   -6.2129   -3.8221 C   0  0  0  0  0  0  0  0  0  0  0  0
    9.2514   -8.2378   -3.2045 H   0  0  0  0  0  0  0  0  0  0  0  0
   12.3116   -5.1759    1.7304 H   0  0  0  0  0  0  0  0  0  0  0  0
    9.1635   -1.9641   -2.6744 Cl  0  0  0  0  0  0  0  0  0  0  0  0
    8.1421   -4.7597   -4.0936 H   0  0  0  0  0  0  0  0  0  0  0  0
    8.1291   -0.8874    1.9468 H   0  0  0  0  0  0  0  0  0  0  0  0
    6.4911   -2.8731   -0.0972 C   0  0  0  0  0  0  0  0  0  0  0  0
    5.1380   -2.5700    0.2299 C   0  0  0  0  0  0  0  0  0  0  0  0
    5.8105   -0.2290    2.6223 H   0  0  0  0  0  0  0  0  0  0  0  0
    4.8724   -1.6017    1.2307 C   0  0  0  0  0  0  0  0  0  0  0  0
   10.7448   -4.5468    2.2521 H   0  0  0  0  0  0  0  0  0  0  0  0
    8.2817   -5.8419   -4.1699 C   0  0  0  0  0  0  0  0  0  0  0  0
    7.5785   -6.3195   -3.4921 H   0  0  0  0  0  0  0  0  0  0  0  0
    8.0499   -6.1452   -5.1863 H   0  0  0  0  0  0  0  0  0  0  0  0
    4.0656   -3.2094   -0.4150 C   0  0  0  0  0  0  0  0  0  0  0  0
    2.7741   -2.8995   -0.0742 C   0  0  0  0  0  0  0  0  0  0  0  0
    2.5093   -1.9436    0.9142 C   0  0  0  0  0  0  0  0  0  0  0  0
    3.5387   -1.3043    1.5557 C   0  0  0  0  0  0  0  0  0  0  0  0
    3.3454   -0.5664    2.3180 H   0  0  0  0  0  0  0  0  0  0  0  0
    4.2907   -3.9418   -1.1742 H   0  0  0  0  0  0  0  0  0  0  0  0
    1.9558   -3.3946   -0.5717 H   0  0  0  0  0  0  0  0  0  0  0  0
    1.4867   -1.7127    1.1675 H   0  0  0  0  0  0  0  0  0  0  0  0
 30 32  1  0  0  0  0
 10 12  2  0  0  0  0
 39 40  1  0  0  0  0
 37 38  1  0  0  0  0
  8 29  1  0  0  0  0
  7 19  1  0  0  0  0
 38 39  2  0  0  0  0
  4 23  1  0  0  0  0
  8 10  1  0  0  0  0
 32 40  2  0  0  0  0
  8 14  1  0  0  0  0
 30 37  2  0  0  0  0
  3  4  4  0  0  0  0
  2  7  4  0  0  0  0
  2  3  4  0  0  0  0
  5  6  4  0  0  0  0
 12 32  1  0  0  0  0
 13 23  1  0  0  0  0
 23 34  1  0  0  0  0
  6  7  4  0  0  0  0
  4  5  4  0  0  0  0
 29 30  1  0  0  0  0
 12 31  1  0  0  0  0
 10 28  1  0  0  0  0
 38 43  1  0  0  0  0
 40 41  1  0  0  0  0
 39 44  1  0  0  0  0
 37 42  1  0  0  0  0
  2 20  1  0  0  0  0
  6 11  1  0  0  0  0
  5 17  1  0  0  0  0
 13 24  1  0  0  0  0
 34 36  1  0  0  0  0
 13 22  1  0  0  0  0
  3 18  1  0  0  0  0
 19 33  1  0  0  0  0
 13 15  1  0  0  0  0
 34 35  1  0  0  0  0
 16 19  1  0  0  0  0
 19 25  1  0  0  0  0
 27 34  1  0  0  0  0
  9 23  1  0  0  0  0
 21 29  2  0  0  0  0
  1  4  1  0  0  0  0
  1  5  1  0  0  0  0
  1  6  1  0  0  0  0
  1  7  1  0  0  0  0
  1 21  1  0  0  0  0
  1 14  1  0  0  0  0
  1 26  1  0  0  0  0
M  END
$$$$
