compound_65
  GFN2-xTB geometry (ORCA XTB2, DDCOSMO(water))

 65 72  0  0  0  0  0  0  0  0999 V2000
   -0.5573   -2.8252    1.1904 Ru  0  0  0  0  0  0  0  0  0  0  0  0
    1.5909   -3.1119   -0.7700 C   0  0  0  0  0  0  0  0  0  0  0  0
    2.6338   -3.7391   -1.4493 C   0  0  0  0  0  0  0  0  0  0  0  0
    3.0097   -5.0188   -1.0927 C   0  0  0  0  0  0  0  0  0  0  0  0
    2.3182   -5.6578   -0.0708 C   0  0  0  0  0  0  0  0  0  0  0  0
    1.2965   -4.9810    0.5648 C   0  0  0  0  0  0  0  0  0  0  0  0
    0.9478   -3.7353    0.2445 N   0  0  0  0  0  0  0  0  0  0  0  0
    2.2110   -4.2389    3.3616 H   0  0  0  0  0  0  0  0  0  0  0  0
    3.1294   -3.2180   -2.2506 H   0  0  0  0  0  0  0  0  0  0  0  0
    2.5630   -6.6622    0.2300 H   0  0  0  0  0  0  0  0  0  0  0  0
    0.7229   -5.4543    1.3525 H   0  0  0  0  0  0  0  0  0  0  0  0
    1.0317   -1.8021   -1.0564 C   0  0  0  0  0  0  0  0  0  0  0  0
    1.4688   -0.9373   -2.0554 C   0  0  0  0  0  0  0  0  0  0  0  0
    0.7976    0.2555   -2.2880 C   0  0  0  0  0  0  0  0  0  0  0  0
   -0.3225    0.5534   -1.5103 C   0  0  0  0  0  0  0  0  0  0  0  0
   -0.7486   -0.3033   -0.5101 C   0  0  0  0  0  0  0  0  0  0  0  0
   -0.0775   -1.4883   -0.2486 C   0  0  0  0  0  0  0  0  0  0  0  0
    2.3124   -1.2017   -2.6737 H   0  0  0  0  0  0  0  0  0  0  0  0
    3.8166   -5.5167   -1.6052 H   0  0  0  0  0  0  0  0  0  0  0  0
   -0.8551    1.4777   -1.6807 H   0  0  0  0  0  0  0  0  0  0  0  0
   -1.6275   -0.0392    0.0625 H   0  0  0  0  0  0  0  0  0  0  0  0
   -2.0560   -3.9454   -0.4081 Cl  0  0  0  0  0  0  0  0  0  0  0  0
   -0.5620   -1.2251    2.7378 C   0  0  0  0  0  0  0  0  0  0  0  0
   -1.9067   -1.6655    2.6882 C   0  0  0  0  0  0  0  0  0  0  0  0
   -2.1343   -3.0485    2.8612 C   0  0  0  0  0  0  0  0  0  0  0  0
   -1.1090   -3.9306    3.2806 C   0  0  0  0  0  0  0  0  0  0  0  0
    0.2081   -3.4802    3.3916 C   0  0  0  0  0  0  0  0  0  0  0  0
    0.4908   -2.1291    3.0318 C   0  0  0  0  0  0  0  0  0  0  0  0
   -2.6351    0.2659    2.1931 H   0  0  0  0  0  0  0  0  0  0  0  0
   -0.3421   -0.1671    2.6369 H   0  0  0  0  0  0  0  0  0  0  0  0
   -3.1523   -3.4256    2.8268 H   0  0  0  0  0  0  0  0  0  0  0  0
    1.4977   -1.7466    3.1659 H   0  0  0  0  0  0  0  0  0  0  0  0
   -1.3660   -4.9463    3.5543 H   0  0  0  0  0  0  0  0  0  0  0  0
   -3.0455   -0.6796    2.5629 C   0  0  0  0  0  0  0  0  0  0  0  0
   -4.1211   -1.1525    1.5819 C   0  0  0  0  0  0  0  0  0  0  0  0
   -3.6475   -0.4323    3.9509 C   0  0  0  0  0  0  0  0  0  0  0  0
   -2.8895   -0.0517    4.6307 H   0  0  0  0  0  0  0  0  0  0  0  0
   -4.0500   -1.3562    4.3601 H   0  0  0  0  0  0  0  0  0  0  0  0
   -4.4517    0.2946    3.8795 H   0  0  0  0  0  0  0  0  0  0  0  0
   -3.6679   -1.5192    0.6579 H   0  0  0  0  0  0  0  0  0  0  0  0
   -4.7900   -0.3329    1.3347 H   0  0  0  0  0  0  0  0  0  0  0  0
   -4.7160   -1.9585    2.0050 H   0  0  0  0  0  0  0  0  0  0  0  0
    1.2973   -4.3468    3.9422 C   0  0  0  0  0  0  0  0  0  0  0  0
    1.0017   -5.3926    3.9570 H   0  0  0  0  0  0  0  0  0  0  0  0
    1.5110   -4.0347    4.9648 H   0  0  0  0  0  0  0  0  0  0  0  0
    1.2501    1.1763   -3.3414 C   0  0  0  0  0  0  0  0  0  0  0  0
    0.3348    1.8247   -4.1668 C   0  0  0  0  0  0  0  0  0  0  0  0
    0.7651    2.6840   -5.1594 C   0  0  0  0  0  0  0  0  0  0  0  0
    2.1185    2.9309   -5.3538 C   0  0  0  0  0  0  0  0  0  0  0  0
    3.0317    2.2854   -4.5288 C   0  0  0  0  0  0  0  0  0  0  0  0
    2.6074    1.4201   -3.5395 C   0  0  0  0  0  0  0  0  0  0  0  0
   -0.7213    1.6345   -4.0414 H   0  0  0  0  0  0  0  0  0  0  0  0
    0.0391    3.1721   -5.7941 H   0  0  0  0  0  0  0  0  0  0  0  0
    3.3310    0.9416   -2.8967 H   0  0  0  0  0  0  0  0  0  0  0  0
    4.0882    2.4682   -4.6624 H   0  0  0  0  0  0  0  0  0  0  0  0
    2.5858    3.8300   -6.4605 C   0  0  0  0  0  0  0  0  0  0  0  0
    2.8441    3.0226   -7.7389 C   0  0  0  0  0  0  0  0  0  0  0  0
    3.3218    3.9123   -8.8796 C   0  0  0  0  0  0  0  0  0  0  0  0
    1.9232    2.5122   -8.0298 H   0  0  0  0  0  0  0  0  0  0  0  0
    3.5938    2.2563   -7.5305 H   0  0  0  0  0  0  0  0  0  0  0  0
    4.2470    4.4154   -8.6081 H   0  0  0  0  0  0  0  0  0  0  0  0
    2.5755    4.6691   -9.1105 H   0  0  0  0  0  0  0  0  0  0  0  0
    3.5086    4.3335   -6.1661 H   0  0  0  0  0  0  0  0  0  0  0  0
    1.8300    4.5903   -6.6666 H   0  0  0  0  0  0  0  0  0  0  0  0
    3.5007    3.3215   -9.7746 H   0  0  0  0  0  0  0  0  0  0  0  0
  2 12  1  0  0  0  0
 14 46  1  0  0  0  0
  5  6  4  0  0  0  0
  3  4  4  0  0  0  0
 50 51  4  0  0  0  0
 47 48  4  0  0  0  0
 15 16  4  0  0  0  0
 16 17  4  0  0  0  0
 27 43  1  0  0  0  0
 13 14  4  0  0  0  0
 48 49  4  0  0  0  0
  4  5  4  0  0  0  0
 49 50  4  0  0  0  0
 49 56  1  0  0  0  0
 12 13  4  0  0  0  0
 46 47  4  0  0  0  0
 46 51  4  0  0  0  0
  2  3  4  0  0  0  0
 14 15  4  0  0  0  0
  6  7  4  0  0  0  0
 26 27  4  0  0  0  0
 24 34  1  0  0  0  0
 12 17  4  0  0  0  0
 57 58  1  0  0  0  0
 24 25  4  0  0  0  0
 23 24  4  0  0  0  0
 25 26  4  0  0  0  0
  2  7  4  0  0  0  0
 23 28  4  0  0  0  0
 34 35  1  0  0  0  0
 34 36  1  0  0  0  0
 56 57  1  0  0  0  0
 27 28  4  0  0  0  0
  3  9  1  0  0  0  0
  5 10  1  0  0  0  0
  4 19  1  0  0  0  0
 13 18  1  0  0  0  0
 51 54  1  0  0  0  0
 15 20  1  0  0  0  0
 47 52  1  0  0  0  0
 50 55  1  0  0  0  0
 48 53  1  0  0  0  0
 16 21  1  0  0  0  0
 26 33  1  0  0  0  0
  6 11  1  0  0  0  0
 23 30  1  0  0  0  0
 28 32  1  0  0  0  0
 25 31  1  0  0  0  0
 35 41  1  0  0  0  0
 36 39  1  0  0  0  0
 43 44  1  0  0  0  0
 36 37  1  0  0  0  0
 58 65  1  0  0  0  0
 35 42  1  0  0  0  0
 58 61  1  0  0  0  0
 36 38  1  0  0  0  0
 58 62  1  0  0  0  0
  8 43  1  0  0  0  0
 43 45  1  0  0  0  0
 56 64  1  0  0  0  0
 56 63  1  0  0  0  0
 57 60  1  0  0  0  0
 57 59  1  0  0  0  0
 35 40  1  0  0  0  0
 29 34  1  0  0  0  0
  1  7  1  0  0  0  0
  1 22  1  0  0  0  0
  1 24  1  0  0  0  0
  1 27  1  0  0  0  0
  1 26  1  0  0  0  0
  1 17  1  0  0  0  0
  1 23  1  0  0  0  0
M  END
$$$$
