compound_121
  GFN2-xTB geometry (ORCA XTB2, DDCOSMO(water))

 76 85  0  0  0  0  0  0  0  0999 V2000
   -4.3065   -4.9345   -0.6346 C   0  0  0  0  0  0  0  0  0  0  0  0
   -5.3945   -5.6716   -0.2377 C   0  0  0  0  0  0  0  0  0  0  0  0
   -5.1978   -6.9381    0.3961 C   0  0  0  0  0  0  0  0  0  0  0  0
   -3.9194   -7.4290    0.5256 C   0  0  0  0  0  0  0  0  0  0  0  0
   -2.8049   -6.6885    0.0984 C   0  0  0  0  0  0  0  0  0  0  0  0
   -2.9934   -5.3886   -0.4379 C   0  0  0  0  0  0  0  0  0  0  0  0
   -4.4822   -3.9934   -1.1265 H   0  0  0  0  0  0  0  0  0  0  0  0
  -11.6761   -0.6710    1.9316 H   0  0  0  0  0  0  0  0  0  0  0  0
   -3.7221   -8.3954    0.9569 H   0  0  0  0  0  0  0  0  0  0  0  0
  -10.7000   -1.1900    3.1584 H   0  0  0  0  0  0  0  0  0  0  0  0
   -6.3074   -7.5724    0.8413 O   0  0  0  0  0  0  0  0  0  0  0  0
   -6.1691   -8.8140    1.5055 C   0  0  0  0  0  0  0  0  0  0  0  0
   -5.7444   -9.5728    0.8443 H   0  0  0  0  0  0  0  0  0  0  0  0
   -7.1781   -9.1020    1.7914 H   0  0  0  0  0  0  0  0  0  0  0  0
   -5.5455   -8.7166    2.3967 H   0  0  0  0  0  0  0  0  0  0  0  0
   -6.6105   -5.0740   -0.3830 O   0  0  0  0  0  0  0  0  0  0  0  0
   -8.9518   -4.9006   -0.7353 C   0  0  0  0  0  0  0  0  0  0  0  0
   -9.3238   -4.8110    0.7438 C   0  0  0  0  0  0  0  0  0  0  0  0
   -8.7474   -3.9002   -1.1304 H   0  0  0  0  0  0  0  0  0  0  0  0
   -8.4234   -4.6793    1.3463 H   0  0  0  0  0  0  0  0  0  0  0  0
   -9.8016   -5.7497    1.0426 H   0  0  0  0  0  0  0  0  0  0  0  0
   -9.7766   -5.3231   -1.3089 H   0  0  0  0  0  0  0  0  0  0  0  0
  -10.2397   -3.6974    0.9989 N   0  0  0  0  0  0  0  0  0  0  0  0
  -10.9612   -3.7200    0.2644 H   0  0  0  0  0  0  0  0  0  0  0  0
   -5.0415    1.3877   -0.2725 Cl  0  0  0  0  0  0  0  0  0  0  0  0
  -10.9298   -3.8346    2.2904 C   0  0  0  0  0  0  0  0  0  0  0  0
  -11.8935   -2.6627    2.3933 C   0  0  0  0  0  0  0  0  0  0  0  0
  -11.0855   -1.4449    2.2442 N   0  0  0  0  0  0  0  0  0  0  0  0
  -11.4644   -4.7868    2.3476 H   0  0  0  0  0  0  0  0  0  0  0  0
  -10.1793   -3.7863    3.0854 H   0  0  0  0  0  0  0  0  0  0  0  0
  -12.4276   -2.6711    3.3464 H   0  0  0  0  0  0  0  0  0  0  0  0
  -12.6172   -2.7067    1.5727 H   0  0  0  0  0  0  0  0  0  0  0  0
   -1.5733   -7.2509    0.1911 N   0  0  0  0  0  0  0  0  0  0  0  0
   -0.5831   -6.5514   -0.2890 C   0  0  0  0  0  0  0  0  0  0  0  0
   -0.6257   -5.3170   -0.7848 N   0  0  0  0  0  0  0  0  0  0  0  0
   -1.8030   -4.6992   -0.8121 C   0  0  0  0  0  0  0  0  0  0  0  0
   -6.7364   -2.9349   -0.1170 H   0  0  0  0  0  0  0  0  0  0  0  0
    0.3966   -7.0142   -0.2694 H   0  0  0  0  0  0  0  0  0  0  0  0
   -7.0647   -2.9513    2.3286 H   0  0  0  0  0  0  0  0  0  0  0  0
   -1.7619   -3.4309   -1.3099 N   0  0  0  0  0  0  0  0  0  0  0  0
   -2.5496   -2.3258   -1.0326 C   0  0  0  0  0  0  0  0  0  0  0  0
   -3.2768   -2.1944    0.1525 C   0  0  0  0  0  0  0  0  0  0  0  0
   -4.0187   -1.0507    0.3676 C   0  0  0  0  0  0  0  0  0  0  0  0
   -4.0681   -0.0242   -0.5655 C   0  0  0  0  0  0  0  0  0  0  0  0
   -3.3221   -0.1430   -1.7286 C   0  0  0  0  0  0  0  0  0  0  0  0
   -2.5669   -1.2749   -1.9543 C   0  0  0  0  0  0  0  0  0  0  0  0
   -3.2594   -2.9600    0.9104 H   0  0  0  0  0  0  0  0  0  0  0  0
   -0.8962   -3.2327   -1.7971 H   0  0  0  0  0  0  0  0  0  0  0  0
   -4.7102   -0.9368    1.5226 F   0  0  0  0  0  0  0  0  0  0  0  0
   -3.3430    0.6529   -2.4544 H   0  0  0  0  0  0  0  0  0  0  0  0
   -1.9854   -1.3551   -2.8581 H   0  0  0  0  0  0  0  0  0  0  0  0
   -9.4789   -1.7200    0.9003 Ru  0  0  0  0  0  0  0  0  0  0  0  0
   -7.6174   -0.9841   -0.4199 C   0  0  0  0  0  0  0  0  0  0  0  0
   -8.1904    0.1387    0.2588 C   0  0  0  0  0  0  0  0  0  0  0  0
   -8.3345    0.1517    1.6415 C   0  0  0  0  0  0  0  0  0  0  0  0
   -7.9920   -0.9999    2.4027 C   0  0  0  0  0  0  0  0  0  0  0  0
   -7.4381   -2.1149    1.7506 C   0  0  0  0  0  0  0  0  0  0  0  0
   -7.2283   -2.0920    0.3491 C   0  0  0  0  0  0  0  0  0  0  0  0
   -8.4106    1.0366   -0.3077 H   0  0  0  0  0  0  0  0  0  0  0  0
   -8.6708    1.0549    2.1369 H   0  0  0  0  0  0  0  0  0  0  0  0
  -11.1113   -1.4110   -0.8625 Cl  0  0  0  0  0  0  0  0  0  0  0  0
   -8.0481   -0.9690    3.4846 H   0  0  0  0  0  0  0  0  0  0  0  0
   -7.3531   -0.9176   -1.8667 C   0  0  0  0  0  0  0  0  0  0  0  0
   -8.1540   -0.1490   -2.7132 C   0  0  0  0  0  0  0  0  0  0  0  0
   -7.8799   -0.0653   -4.0651 C   0  0  0  0  0  0  0  0  0  0  0  0
   -6.7952   -0.7402   -4.6002 C   0  0  0  0  0  0  0  0  0  0  0  0
   -5.9965   -1.5122   -3.7735 C   0  0  0  0  0  0  0  0  0  0  0  0
   -6.2751   -1.6063   -2.4243 C   0  0  0  0  0  0  0  0  0  0  0  0
   -9.0222    0.3674   -2.3253 H   0  0  0  0  0  0  0  0  0  0  0  0
   -8.5176    0.5308   -4.7013 H   0  0  0  0  0  0  0  0  0  0  0  0
   -6.5803   -0.6638   -5.6549 H   0  0  0  0  0  0  0  0  0  0  0  0
   -5.1497   -2.0412   -4.1816 H   0  0  0  0  0  0  0  0  0  0  0  0
   -5.6325   -2.1985   -1.7961 H   0  0  0  0  0  0  0  0  0  0  0  0
   -7.7212   -5.7799   -0.9362 C   0  0  0  0  0  0  0  0  0  0  0  0
   -7.5391   -5.9486   -2.0048 H   0  0  0  0  0  0  0  0  0  0  0  0
   -7.8567   -6.7438   -0.4417 H   0  0  0  0  0  0  0  0  0  0  0  0
  6 36  1  0  0  0  0
  3 11  1  0  0  0  0
  2 16  1  0  0  0  0
 53 63  1  0  0  0  0
 34 35  1  0  0  0  0
 43 49  1  0  0  0  0
  1  2  4  0  0  0  0
  3  4  4  0  0  0  0
 45 46  4  0  0  0  0
 42 43  4  0  0  0  0
 67 68  4  0  0  0  0
 64 65  4  0  0  0  0
 66 67  4  0  0  0  0
 65 66  4  0  0  0  0
 44 45  4  0  0  0  0
 43 44  4  0  0  0  0
 54 55  4  0  0  0  0
  5 33  1  0  0  0  0
 63 68  4  0  0  0  0
 63 64  4  0  0  0  0
 41 42  4  0  0  0  0
 41 46  4  0  0  0  0
 36 40  1  0  0  0  0
  1  6  4  0  0  0  0
 53 58  4  0  0  0  0
  4  5  4  0  0  0  0
 56 57  4  0  0  0  0
 26 27  1  0  0  0  0
 25 44  1  0  0  0  0
 11 12  1  0  0  0  0
 17 74  1  0  0  0  0
 17 18  1  0  0  0  0
 57 58  4  0  0  0  0
  5  6  4  0  0  0  0
 55 56  4  0  0  0  0
 40 41  1  0  0  0  0
 16 74  1  0  0  0  0
  2  3  4  0  0  0  0
 53 54  4  0  0  0  0
 68 73  1  0  0  0  0
  1  7  1  0  0  0  0
  4  9  1  0  0  0  0
 45 50  1  0  0  0  0
 42 47  1  0  0  0  0
 46 51  1  0  0  0  0
 67 72  1  0  0  0  0
 66 71  1  0  0  0  0
 65 70  1  0  0  0  0
 37 58  1  0  0  0  0
 64 69  1  0  0  0  0
 39 57  1  0  0  0  0
 55 60  1  0  0  0  0
 34 38  1  0  0  0  0
 56 62  1  0  0  0  0
 40 48  1  0  0  0  0
 54 59  1  0  0  0  0
 12 14  1  0  0  0  0
 17 22  1  0  0  0  0
 18 20  1  0  0  0  0
 74 76  1  0  0  0  0
 12 15  1  0  0  0  0
 12 13  1  0  0  0  0
 27 31  1  0  0  0  0
 26 29  1  0  0  0  0
  8 28  1  0  0  0  0
 26 30  1  0  0  0  0
 17 19  1  0  0  0  0
 18 21  1  0  0  0  0
 27 32  1  0  0  0  0
 10 28  1  0  0  0  0
 74 75  1  0  0  0  0
 23 24  1  0  0  0  0
 18 23  1  0  0  0  0
 27 28  1  0  0  0  0
 23 26  1  0  0  0  0
 33 34  2  0  0  0  0
 35 36  2  0  0  0  0
 52 23  1  0  0  0  0
 52 28  1  0  0  0  0
 52 61  1  0  0  0  0
 52 53  1  0  0  0  0
 52 54  1  0  0  0  0
 52 55  1  0  0  0  0
 52 56  1  0  0  0  0
 52 57  1  0  0  0  0
M  END
$$$$
