compound_13
  GFN2-xTB geometry (ORCA XTB2, DDCOSMO(water))

 55 62  0  0  0  0  0  0  0  0999 V2000
    5.5196   -2.5970    2.7415 H   0  0  0  0  0  0  0  0  0  0  0  0
   -0.8354   -1.0630   -0.8519 C   0  0  0  0  0  0  0  0  0  0  0  0
    0.1737   -1.6186   -0.0649 C   0  0  0  0  0  0  0  0  0  0  0  0
    1.5122   -1.9466   -0.5415 C   0  0  0  0  0  0  0  0  0  0  0  0
    4.9736   -1.8639    4.2571 H   0  0  0  0  0  0  0  0  0  0  0  0
   -0.0378   -5.2251    1.3011 C   0  0  0  0  0  0  0  0  0  0  0  0
    4.7064   -0.0232    2.7869 H   0  0  0  0  0  0  0  0  0  0  0  0
    4.2089   -0.9312    2.4473 C   0  0  0  0  0  0  0  0  0  0  0  0
   -1.4450   -2.1431    2.7315 H   0  0  0  0  0  0  0  0  0  0  0  0
    6.8244   -4.7151   -1.6635 H   0  0  0  0  0  0  0  0  0  0  0  0
   -2.1001   -0.8908   -0.3255 C   0  0  0  0  0  0  0  0  0  0  0  0
   -2.3350   -1.2872    0.9841 C   0  0  0  0  0  0  0  0  0  0  0  0
   -1.2889   -1.8226    1.7086 C   0  0  0  0  0  0  0  0  0  0  0  0
   -0.0649   -1.9797    1.2108 N   0  0  0  0  0  0  0  0  0  0  0  0
   -2.8889   -0.4661   -0.9251 H   0  0  0  0  0  0  0  0  0  0  0  0
   -3.3070   -1.1866    1.4362 H   0  0  0  0  0  0  0  0  0  0  0  0
    3.4362   -2.4403    5.6110 H   0  0  0  0  0  0  0  0  0  0  0  0
    3.5493   -4.2101    5.6904 H   0  0  0  0  0  0  0  0  0  0  0  0
    2.2933   -2.7347    0.3332 C   0  0  0  0  0  0  0  0  0  0  0  0
    5.2232   -1.7774   -4.8777 H   0  0  0  0  0  0  0  0  0  0  0  0
    3.4940   -3.2862   -0.2127 C   0  0  0  0  0  0  0  0  0  0  0  0
    3.9707   -2.8799   -1.4921 C   0  0  0  0  0  0  0  0  0  0  0  0
    3.2068   -1.9764   -2.2651 C   0  0  0  0  0  0  0  0  0  0  0  0
    1.9676   -1.5630   -1.7991 C   0  0  0  0  0  0  0  0  0  0  0  0
    2.1210    0.9276    4.3022 H   0  0  0  0  0  0  0  0  0  0  0  0
    3.0631   -0.4864    4.8050 H   0  0  0  0  0  0  0  0  0  0  0  0
    0.0335   -0.1854    4.5060 H   0  0  0  0  0  0  0  0  0  0  0  0
    0.9319   -0.7186    5.9437 H   0  0  0  0  0  0  0  0  0  0  0  0
    1.1832   -4.4899    5.3296 H   0  0  0  0  0  0  0  0  0  0  0  0
    4.4005   -1.0709    1.3822 H   0  0  0  0  0  0  0  0  0  0  0  0
    1.5259   -2.7228    2.2072 Ru  0  0  0  0  0  0  0  0  0  0  0  0
    0.7123   -4.5983    1.9460 N   0  0  0  0  0  0  0  0  0  0  0  0
    1.3157   -3.1690    6.5158 H   0  0  0  0  0  0  0  0  0  0  0  0
    2.4083   -0.5845    2.4800 S   0  0  0  0  0  0  0  0  0  0  0  0
    2.1759   -0.1607    4.2732 C   0  0  0  0  0  0  0  0  0  0  0  0
    0.9048   -0.7399    4.8558 C   0  0  0  0  0  0  0  0  0  0  0  0
    0.4948   -2.4755    4.3810 S   0  0  0  0  0  0  0  0  0  0  0  0
    1.5493   -3.4745    5.4966 C   0  0  0  0  0  0  0  0  0  0  0  0
    3.0308   -3.3712    5.2267 C   0  0  0  0  0  0  0  0  0  0  0  0
    3.4384   -3.5024    3.4155 S   0  0  0  0  0  0  0  0  0  0  0  0
    4.6738   -2.1338    3.2479 C   0  0  0  0  0  0  0  0  0  0  0  0
    5.1860   -3.4013   -1.9866 C   0  0  0  0  0  0  0  0  0  0  0  0
    5.8987   -4.3392   -1.2541 C   0  0  0  0  0  0  0  0  0  0  0  0
    5.3975   -4.7987   -0.0439 C   0  0  0  0  0  0  0  0  0  0  0  0
    4.2211   -4.2875    0.4563 C   0  0  0  0  0  0  0  0  0  0  0  0
    3.8116   -4.6974    1.3668 H   0  0  0  0  0  0  0  0  0  0  0  0
    5.9270   -5.5651    0.4984 H   0  0  0  0  0  0  0  0  0  0  0  0
    5.6791   -2.9735   -3.2904 C   0  0  0  0  0  0  0  0  0  0  0  0
    4.8925   -2.0670   -3.9626 N   0  0  0  0  0  0  0  0  0  0  0  0
    3.6764   -1.5472   -3.5640 C   0  0  0  0  0  0  0  0  0  0  0  0
    3.0744   -0.7791   -4.3124 O   0  0  0  0  0  0  0  0  0  0  0  0
    6.7238   -3.3667   -3.7997 O   0  0  0  0  0  0  0  0  0  0  0  0
   -0.6255   -0.7842   -1.8709 H   0  0  0  0  0  0  0  0  0  0  0  0
    1.3881   -0.9147   -2.4401 H   0  0  0  0  0  0  0  0  0  0  0  0
   -1.0489   -6.1375    0.4614 S   0  0  0  0  0  0  0  0  0  0  0  0
 21 22  1  0  0  0  0
 23 50  1  0  0  0  0
 42 48  1  0  0  0  0
  3  4  1  0  0  0  0
 44 45  4  0  0  0  0
 12 13  4  0  0  0  0
  2 11  4  0  0  0  0
 23 24  4  0  0  0  0
 42 43  4  0  0  0  0
 43 44  4  0  0  0  0
 11 12  4  0  0  0  0
  4 24  4  0  0  0  0
 13 14  4  0  0  0  0
  2  3  4  0  0  0  0
 38 39  1  0  0  0  0
 35 36  1  0  0  0  0
  8 41  1  0  0  0  0
 21 45  4  0  0  0  0
  3 14  4  0  0  0  0
 22 42  4  0  0  0  0
  4 19  4  0  0  0  0
 48 49  1  0  0  0  0
 22 23  4  0  0  0  0
 49 50  1  0  0  0  0
 19 21  4  0  0  0  0
 12 16  1  0  0  0  0
  2 53  1  0  0  0  0
 44 47  1  0  0  0  0
 11 15  1  0  0  0  0
 45 46  1  0  0  0  0
 10 43  1  0  0  0  0
 24 54  1  0  0  0  0
 37 38  1  0  0  0  0
  9 13  1  0  0  0  0
  8 34  1  0  0  0  0
 26 35  1  0  0  0  0
 17 39  1  0  0  0  0
 20 49  1  0  0  0  0
  5 41  1  0  0  0  0
 28 36  1  0  0  0  0
  1 41  1  0  0  0  0
 33 38  1  0  0  0  0
  7  8  1  0  0  0  0
 18 39  1  0  0  0  0
 25 35  1  0  0  0  0
 27 36  1  0  0  0  0
 36 37  1  0  0  0  0
  8 30  1  0  0  0  0
 29 38  1  0  0  0  0
 40 41  1  0  0  0  0
 34 35  1  0  0  0  0
 39 40  1  0  0  0  0
  6 32  2  0  0  0  0
 48 52  2  0  0  0  0
 50 51  2  0  0  0  0
  6 55  2  0  0  0  0
 31 32  1  0  0  0  0
 31 14  1  0  0  0  0
 31 19  1  0  0  0  0
 31 34  1  0  0  0  0
 31 37  1  0  0  0  0
 31 40  1  0  0  0  0
M  END
$$$$
