compound_10
  GFN2-xTB geometry (ORCA XTB2, DDCOSMO(water))

 54 61  0  0  0  0  0  0  0  0999 V2000
    5.4871   -2.4723    2.6869 H   0  0  0  0  0  0  0  0  0  0  0  0
   -0.7373   -0.7668   -0.7652 C   0  0  0  0  0  0  0  0  0  0  0  0
    0.1936   -1.5154   -0.0440 C   0  0  0  0  0  0  0  0  0  0  0  0
    1.5156   -1.9019   -0.5361 C   0  0  0  0  0  0  0  0  0  0  0  0
    4.8880   -1.7266    4.1722 H   0  0  0  0  0  0  0  0  0  0  0  0
    0.5640   -5.6370    1.6996 O   0  0  0  0  0  0  0  0  0  0  0  0
    4.5777    0.0307    2.6002 H   0  0  0  0  0  0  0  0  0  0  0  0
    4.0826   -0.9019    2.3268 C   0  0  0  0  0  0  0  0  0  0  0  0
   -1.5428   -2.2507    2.6377 H   0  0  0  0  0  0  0  0  0  0  0  0
    6.7214   -4.8485   -1.7089 H   0  0  0  0  0  0  0  0  0  0  0  0
   -1.9932   -0.5432   -0.2348 C   0  0  0  0  0  0  0  0  0  0  0  0
   -2.3046   -1.0863    1.0046 C   0  0  0  0  0  0  0  0  0  0  0  0
   -1.3336   -1.8093    1.6710 C   0  0  0  0  0  0  0  0  0  0  0  0
   -0.1184   -2.0063    1.1701 N   0  0  0  0  0  0  0  0  0  0  0  0
   -2.7197    0.0361   -0.7818 H   0  0  0  0  0  0  0  0  0  0  0  0
   -3.2775   -0.9511    1.4458 H   0  0  0  0  0  0  0  0  0  0  0  0
    3.3924   -2.3836    5.5523 H   0  0  0  0  0  0  0  0  0  0  0  0
    3.5754   -4.1418    5.6597 H   0  0  0  0  0  0  0  0  0  0  0  0
    2.2406   -2.7841    0.2822 C   0  0  0  0  0  0  0  0  0  0  0  0
    5.3163   -1.6820   -4.7997 H   0  0  0  0  0  0  0  0  0  0  0  0
    3.4252   -3.3595   -0.2543 C   0  0  0  0  0  0  0  0  0  0  0  0
    3.9411   -2.9107   -1.5028 C   0  0  0  0  0  0  0  0  0  0  0  0
    3.2318   -1.9327   -2.2364 C   0  0  0  0  0  0  0  0  0  0  0  0
    2.0138   -1.4742   -1.7704 C   0  0  0  0  0  0  0  0  0  0  0  0
    1.9574    0.9333    4.2074 H   0  0  0  0  0  0  0  0  0  0  0  0
    2.9559   -0.4324    4.7180 H   0  0  0  0  0  0  0  0  0  0  0  0
   -0.0855   -0.2496    4.4350 H   0  0  0  0  0  0  0  0  0  0  0  0
    0.8382   -0.7190    5.8748 H   0  0  0  0  0  0  0  0  0  0  0  0
    1.2248   -4.5253    5.2562 H   0  0  0  0  0  0  0  0  0  0  0  0
    4.2488   -1.0899    1.2642 H   0  0  0  0  0  0  0  0  0  0  0  0
    1.4621   -2.8219    2.1749 Ru  0  0  0  0  0  0  0  0  0  0  0  0
    0.8880   -4.5561    1.9101 C   0  0  0  0  0  0  0  0  0  0  0  0
    1.3115   -3.2273    6.4688 H   0  0  0  0  0  0  0  0  0  0  0  0
    2.2857   -0.5954    2.4067 S   0  0  0  0  0  0  0  0  0  0  0  0
    2.0521   -0.1534    4.1861 C   0  0  0  0  0  0  0  0  0  0  0  0
    0.8059   -0.7703    4.7873 C   0  0  0  0  0  0  0  0  0  0  0  0
    0.4523   -2.5199    4.3544 S   0  0  0  0  0  0  0  0  0  0  0  0
    1.5488   -3.4987    5.4400 C   0  0  0  0  0  0  0  0  0  0  0  0
    3.0260   -3.3343    5.1750 C   0  0  0  0  0  0  0  0  0  0  0  0
    3.4584   -3.4731    3.3760 S   0  0  0  0  0  0  0  0  0  0  0  0
    4.6073   -2.0492    3.1720 C   0  0  0  0  0  0  0  0  0  0  0  0
    5.1448   -3.4564   -1.9996 C   0  0  0  0  0  0  0  0  0  0  0  0
    5.8042   -4.4523   -1.2988 C   0  0  0  0  0  0  0  0  0  0  0  0
    5.2672   -4.9423   -0.1112 C   0  0  0  0  0  0  0  0  0  0  0  0
    4.1054   -4.4114    0.3945 C   0  0  0  0  0  0  0  0  0  0  0  0
    3.6729   -4.8334    1.2899 H   0  0  0  0  0  0  0  0  0  0  0  0
    5.7663   -5.7477    0.4028 H   0  0  0  0  0  0  0  0  0  0  0  0
    5.6857   -2.9799   -3.2711 C   0  0  0  0  0  0  0  0  0  0  0  0
    4.9489   -2.0085   -3.9113 N   0  0  0  0  0  0  0  0  0  0  0  0
    3.7535   -1.4510   -3.5064 C   0  0  0  0  0  0  0  0  0  0  0  0
    3.2044   -0.6104   -4.2087 O   0  0  0  0  0  0  0  0  0  0  0  0
    6.7272   -3.3839   -3.7722 O   0  0  0  0  0  0  0  0  0  0  0  0
   -0.4770   -0.3706   -1.7321 H   0  0  0  0  0  0  0  0  0  0  0  0
    1.4855   -0.7589   -2.3825 H   0  0  0  0  0  0  0  0  0  0  0  0
 21 22  1  0  0  0  0
 23 50  1  0  0  0  0
 42 48  1  0  0  0  0
  3  4  1  0  0  0  0
 44 45  4  0  0  0  0
  2 11  4  0  0  0  0
 12 13  4  0  0  0  0
 23 24  4  0  0  0  0
 42 43  4  0  0  0  0
 11 12  4  0  0  0  0
 13 14  4  0  0  0  0
 43 44  4  0  0  0  0
  2  3  4  0  0  0  0
  4 24  4  0  0  0  0
 38 39  1  0  0  0  0
 35 36  1  0  0  0  0
  4 19  4  0  0  0  0
  8 41  1  0  0  0  0
  3 14  4  0  0  0  0
 21 45  4  0  0  0  0
 22 42  4  0  0  0  0
 22 23  4  0  0  0  0
 48 49  1  0  0  0  0
 49 50  1  0  0  0  0
 19 21  4  0  0  0  0
 12 16  1  0  0  0  0
  2 53  1  0  0  0  0
 44 47  1  0  0  0  0
 11 15  1  0  0  0  0
  8 34  1  0  0  0  0
 24 54  1  0  0  0  0
 10 43  1  0  0  0  0
 37 38  1  0  0  0  0
 45 46  1  0  0  0  0
  9 13  1  0  0  0  0
 26 35  1  0  0  0  0
 36 37  1  0  0  0  0
 20 49  1  0  0  0  0
 17 39  1  0  0  0  0
  5 41  1  0  0  0  0
 40 41  1  0  0  0  0
 28 36  1  0  0  0  0
 33 38  1  0  0  0  0
  1 41  1  0  0  0  0
 18 39  1  0  0  0  0
  7  8  1  0  0  0  0
 27 36  1  0  0  0  0
 25 35  1  0  0  0  0
  8 30  1  0  0  0  0
 29 38  1  0  0  0  0
 34 35  1  0  0  0  0
 39 40  1  0  0  0  0
  6 32  2  0  0  0  0
 48 52  2  0  0  0  0
 50 51  2  0  0  0  0
 31 32  1  0  0  0  0
 31 14  1  0  0  0  0
 31 19  1  0  0  0  0
 31 34  1  0  0  0  0
 31 37  1  0  0  0  0
 31 40  1  0  0  0  0
M  END
$$$$
