compound_47
  GFN2-xTB geometry (ORCA XTB2, DDCOSMO(water))

 49 55  0  0  0  0  0  0  0  0999 V2000
   -0.9051   -0.6525   -2.0167 C   0  0  0  0  0  0  0  0  0  0  0  0
   -0.9397   -0.0929   -0.7490 C   0  0  0  0  0  0  0  0  0  0  0  0
    0.0403   -0.4683    0.1552 C   0  0  0  0  0  0  0  0  0  0  0  0
    1.0942   -1.3128   -0.1955 C   0  0  0  0  0  0  0  0  0  0  0  0
    1.2249   -1.7183   -1.5525 C   0  0  0  0  0  0  0  0  0  0  0  0
    0.1685   -1.4756   -2.4246 C   0  0  0  0  0  0  0  0  0  0  0  0
    4.8639   -3.7464   -0.0858 H   0  0  0  0  0  0  0  0  0  0  0  0
    5.8466   -4.1256   -2.3164 H   0  0  0  0  0  0  0  0  0  0  0  0
    3.2581   -3.4231    4.5500 H   0  0  0  0  0  0  0  0  0  0  0  0
    4.6025   -3.3083   -4.3334 H   0  0  0  0  0  0  0  0  0  0  0  0
    0.6557   -4.5302    3.3821 H   0  0  0  0  0  0  0  0  0  0  0  0
    2.8191   -5.1263    4.2855 H   0  0  0  0  0  0  0  0  0  0  0  0
    5.1480   -3.1229    3.7183 H   0  0  0  0  0  0  0  0  0  0  0  0
    5.8865   -3.7823    2.2615 H   0  0  0  0  0  0  0  0  0  0  0  0
    0.8637   -3.5506    4.8545 H   0  0  0  0  0  0  0  0  0  0  0  0
    1.4135   -1.0776    4.8319 H   0  0  0  0  0  0  0  0  0  0  0  0
    2.4745   -2.3967   -1.8680 C   0  0  0  0  0  0  0  0  0  0  0  0
    3.1810   -2.7929   -0.7868 N   0  0  0  0  0  0  0  0  0  0  0  0
    5.6001   -1.8062    1.0112 H   0  0  0  0  0  0  0  0  0  0  0  0
    2.4148   -2.2014   -3.9966 H   0  0  0  0  0  0  0  0  0  0  0  0
    4.3503   -3.4057   -0.9754 C   0  0  0  0  0  0  0  0  0  0  0  0
    4.8985   -3.6241   -2.2221 C   0  0  0  0  0  0  0  0  0  0  0  0
    4.2059   -3.1771   -3.3399 C   0  0  0  0  0  0  0  0  0  0  0  0
    2.9858   -2.5564   -3.1561 C   0  0  0  0  0  0  0  0  0  0  0  0
   -0.2133   -2.0694   -3.7099 C   0  0  0  0  0  0  0  0  0  0  0  0
   -1.4070   -1.4734   -4.0636 N   0  0  0  0  0  0  0  0  0  0  0  0
   -1.9020   -0.6338   -3.0693 C   0  0  0  0  0  0  0  0  0  0  0  0
   -2.9726   -0.0508   -3.1404 O   0  0  0  0  0  0  0  0  0  0  0  0
    0.3148   -2.9572   -4.3648 O   0  0  0  0  0  0  0  0  0  0  0  0
   -1.9335   -1.7388   -4.8825 H   0  0  0  0  0  0  0  0  0  0  0  0
    2.2033   -2.5347    0.9344 Ru  0  0  0  0  0  0  0  0  0  0  0  0
   -1.7626    0.5475   -0.4683 H   0  0  0  0  0  0  0  0  0  0  0  0
    0.9145   -4.1271    0.2621 N   0  0  0  0  0  0  0  0  0  0  0  0
    3.5967   -0.8677    1.7651 S   0  0  0  0  0  0  0  0  0  0  0  0
    3.0961   -0.6689    3.5448 C   0  0  0  0  0  0  0  0  0  0  0  0
    1.6194   -0.8825    3.7810 C   0  0  0  0  0  0  0  0  0  0  0  0
    0.8342   -2.2690    2.8309 S   0  0  0  0  0  0  0  0  0  0  0  0
    1.2495   -3.7425    3.8538 C   0  0  0  0  0  0  0  0  0  0  0  0
    2.7143   -4.1091    3.9076 C   0  0  0  0  0  0  0  0  0  0  0  0
    3.5293   -4.1198    2.2435 S   0  0  0  0  0  0  0  0  0  0  0  0
    5.0774   -3.1563    2.6352 C   0  0  0  0  0  0  0  0  0  0  0  0
    5.1806   -1.7732    2.0164 C   0  0  0  0  0  0  0  0  0  0  0  0
    5.8026   -1.1283    2.6364 H   0  0  0  0  0  0  0  0  0  0  0  0
    3.3613    0.3574    3.7965 H   0  0  0  0  0  0  0  0  0  0  0  0
    3.7017   -1.3535    4.1278 H   0  0  0  0  0  0  0  0  0  0  0  0
    1.0420   -0.0177    3.4554 H   0  0  0  0  0  0  0  0  0  0  0  0
   -0.0427   -0.1147    1.1744 H   0  0  0  0  0  0  0  0  0  0  0  0
    0.2009   -4.3762   -0.6324 C   0  0  0  0  0  0  0  0  0  0  0  0
   -0.5402   -4.7079   -1.5089 O   0  0  0  0  0  0  0  0  0  0  0  0
  1 27  1  0  0  0  0
  5 17  1  0  0  0  0
  6 25  1  0  0  0  0
 21 22  4  0  0  0  0
 23 24  4  0  0  0  0
  2  3  4  0  0  0  0
  1  2  4  0  0  0  0
 22 23  4  0  0  0  0
  5  6  4  0  0  0  0
 17 24  4  0  0  0  0
  3  4  4  0  0  0  0
 18 21  4  0  0  0  0
 35 36  1  0  0  0  0
 38 39  1  0  0  0  0
 41 42  1  0  0  0  0
  1  6  4  0  0  0  0
 17 18  4  0  0  0  0
 25 26  1  0  0  0  0
  4  5  4  0  0  0  0
 26 27  1  0  0  0  0
 20 24  1  0  0  0  0
  8 22  1  0  0  0  0
 10 23  1  0  0  0  0
 26 30  1  0  0  0  0
  2 32  1  0  0  0  0
  3 47  1  0  0  0  0
  7 21  1  0  0  0  0
 35 45  1  0  0  0  0
  9 39  1  0  0  0  0
 13 41  1  0  0  0  0
 37 38  1  0  0  0  0
 16 36  1  0  0  0  0
 34 42  1  0  0  0  0
 14 41  1  0  0  0  0
 15 38  1  0  0  0  0
 35 44  1  0  0  0  0
 42 43  1  0  0  0  0
 36 46  1  0  0  0  0
 19 42  1  0  0  0  0
 12 39  1  0  0  0  0
 11 38  1  0  0  0  0
 39 40  1  0  0  0  0
 36 37  1  0  0  0  0
 34 35  1  0  0  0  0
 40 41  1  0  0  0  0
 33 48  2  0  0  0  0
 48 49  2  0  0  0  0
 27 28  2  0  0  0  0
 25 29  2  0  0  0  0
 31 33  1  0  0  0  0
 31  4  1  0  0  0  0
 31 18  1  0  0  0  0
 31 37  1  0  0  0  0
 31 40  1  0  0  0  0
 31 34  1  0  0  0  0
M  END
$$$$
