compound_95
  GFN2-xTB geometry (ORCA XTB2, DDCOSMO(water))

 38 44  0  0  0  0  0  0  0  0999 V2000
    7.6070   -5.5418    0.9623 Ru  0  0  0  0  0  0  0  0  0  0  0  0
    8.9164   -4.2562   -0.4407 C   0  0  0  0  0  0  0  0  0  0  0  0
    8.0244   -4.9862   -1.2365 C   0  0  0  0  0  0  0  0  0  0  0  0
    7.9543   -6.4024   -1.1560 C   0  0  0  0  0  0  0  0  0  0  0  0
    8.7615   -7.1192   -0.2659 C   0  0  0  0  0  0  0  0  0  0  0  0
    9.6296   -6.3748    0.5925 C   0  0  0  0  0  0  0  0  0  0  0  0
    9.7070   -4.9740    0.5070 C   0  0  0  0  0  0  0  0  0  0  0  0
    7.4283   -4.4740   -1.9848 H   0  0  0  0  0  0  0  0  0  0  0  0
    7.3014   -6.9273   -1.8432 H   0  0  0  0  0  0  0  0  0  0  0  0
    9.8257   -2.5929   -1.3925 H   0  0  0  0  0  0  0  0  0  0  0  0
   10.3023   -6.9107    1.2538 H   0  0  0  0  0  0  0  0  0  0  0  0
   10.4362   -4.4360    1.1025 H   0  0  0  0  0  0  0  0  0  0  0  0
    9.0874   -2.7783   -0.6108 C   0  0  0  0  0  0  0  0  0  0  0  0
    9.4454   -2.3127    0.3034 H   0  0  0  0  0  0  0  0  0  0  0  0
    8.1559   -2.3063   -0.9168 H   0  0  0  0  0  0  0  0  0  0  0  0
    8.7873   -8.6287   -0.2278 C   0  0  0  0  0  0  0  0  0  0  0  0
    7.4001   -9.2477   -0.4067 C   0  0  0  0  0  0  0  0  0  0  0  0
    9.7542   -9.1304   -1.3070 C   0  0  0  0  0  0  0  0  0  0  0  0
    9.1771   -8.9408    0.7458 H   0  0  0  0  0  0  0  0  0  0  0  0
    7.4230  -10.2986   -0.1307 H   0  0  0  0  0  0  0  0  0  0  0  0
    7.0687   -9.1870   -1.4415 H   0  0  0  0  0  0  0  0  0  0  0  0
    6.6642   -8.7402    0.2164 H   0  0  0  0  0  0  0  0  0  0  0  0
    9.4145   -8.8304   -2.2967 H   0  0  0  0  0  0  0  0  0  0  0  0
    9.8108  -10.2156   -1.2807 H   0  0  0  0  0  0  0  0  0  0  0  0
   10.7520   -8.7281   -1.1497 H   0  0  0  0  0  0  0  0  0  0  0  0
    5.1988   -5.4846    0.7095 Cl  0  0  0  0  0  0  0  0  0  0  0  0
    7.2589   -6.7352    2.6704 N   0  0  0  0  0  0  0  0  0  0  0  0
    6.7959   -5.9203    3.8045 C   0  0  0  0  0  0  0  0  0  0  0  0
    7.5979   -4.6278    3.7577 C   0  0  0  0  0  0  0  0  0  0  0  0
    7.3596   -4.0552    2.4263 N   0  0  0  0  0  0  0  0  0  0  0  0
    6.3885   -3.7283    2.3728 H   0  0  0  0  0  0  0  0  0  0  0  0
    6.5721   -7.4662    2.4731 H   0  0  0  0  0  0  0  0  0  0  0  0
    8.1329   -7.2010    2.9342 H   0  0  0  0  0  0  0  0  0  0  0  0
    6.9332   -6.4454    4.7527 H   0  0  0  0  0  0  0  0  0  0  0  0
    5.7325   -5.6990    3.6620 H   0  0  0  0  0  0  0  0  0  0  0  0
    8.6654   -4.8469    3.8534 H   0  0  0  0  0  0  0  0  0  0  0  0
    7.2899   -3.9431    4.5519 H   0  0  0  0  0  0  0  0  0  0  0  0
    7.9665   -3.2448    2.2818 H   0  0  0  0  0  0  0  0  0  0  0  0
  2 13  1  0  0  0  0
  4  5  4  0  0  0  0
  5 16  1  0  0  0  0
  2  3  4  0  0  0  0
  6  7  4  0  0  0  0
 28 29  1  0  0  0  0
 16 17  1  0  0  0  0
  3  4  4  0  0  0  0
 16 18  1  0  0  0  0
  2  7  4  0  0  0  0
  5  6  4  0  0  0  0
  4  9  1  0  0  0  0
  7 12  1  0  0  0  0
  6 11  1  0  0  0  0
  3  8  1  0  0  0  0
 13 14  1  0  0  0  0
 17 20  1  0  0  0  0
 18 24  1  0  0  0  0
 18 25  1  0  0  0  0
 13 15  1  0  0  0  0
 17 21  1  0  0  0  0
 18 23  1  0  0  0  0
 17 22  1  0  0  0  0
 10 13  1  0  0  0  0
 28 34  1  0  0  0  0
 29 37  1  0  0  0  0
 27 32  1  0  0  0  0
 29 36  1  0  0  0  0
 16 19  1  0  0  0  0
 30 38  1  0  0  0  0
 28 35  1  0  0  0  0
 27 33  1  0  0  0  0
 30 31  1  0  0  0  0
 29 30  1  0  0  0  0
 27 28  1  0  0  0  0
  1 26  1  0  0  0  0
  1  2  1  0  0  0  0
  1  3  1  0  0  0  0
  1  4  1  0  0  0  0
  1  5  1  0  0  0  0
  1  6  1  0  0  0  0
  1  7  1  0  0  0  0
  1 27  1  0  0  0  0
  1 30  1  0  0  0  0
M  END
$$$$
