compound_34
  GFN2-xTB geometry (ORCA XTB2, DDCOSMO(water))

 59 67  0  0  0  0  0  0  0  0999 V2000
   -1.7877   -0.2472   -3.1930 C   0  0  0  0  0  0  0  0  0  0  0  0
   -2.0275   -0.4607   -1.8146 C   0  0  0  0  0  0  0  0  0  0  0  0
   -0.9312   -0.9302   -1.0399 C   0  0  0  0  0  0  0  0  0  0  0  0
    0.3042   -1.1660   -1.6696 C   0  0  0  0  0  0  0  0  0  0  0  0
    0.5347   -0.9546   -3.0662 C   0  0  0  0  0  0  0  0  0  0  0  0
   -0.5449   -0.4887   -3.7988 C   0  0  0  0  0  0  0  0  0  0  0  0
    4.0072   -2.5858   -0.8670 H   0  0  0  0  0  0  0  0  0  0  0  0
    5.4963   -2.6335   -2.8423 H   0  0  0  0  0  0  0  0  0  0  0  0
   -2.1928   -1.1846    1.9678 H   0  0  0  0  0  0  0  0  0  0  0  0
    4.8509   -1.8664   -5.2752 O   0  0  0  0  0  0  0  0  0  0  0  0
   -3.2409   -0.2564   -1.1376 C   0  0  0  0  0  0  0  0  0  0  0  0
   -3.2614   -0.5316    0.2094 C   0  0  0  0  0  0  0  0  0  0  0  0
   -2.1372   -0.9886    0.9052 C   0  0  0  0  0  0  0  0  0  0  0  0
   -0.9869   -1.1787    0.2856 N   0  0  0  0  0  0  0  0  0  0  0  0
   -4.1167    0.0979   -1.6571 H   0  0  0  0  0  0  0  0  0  0  0  0
   -4.4014   -0.3574    0.9113 F   0  0  0  0  0  0  0  0  0  0  0  0
    1.9009   -1.3399   -3.2567 C   0  0  0  0  0  0  0  0  0  0  0  0
    2.3703   -1.7600   -1.9752 C   0  0  0  0  0  0  0  0  0  0  0  0
    1.3776   -1.6331   -1.0288 N   0  0  0  0  0  0  0  0  0  0  0  0
    2.3923   -1.0595   -5.3358 H   0  0  0  0  0  0  0  0  0  0  0  0
    3.6664   -2.2334   -1.8254 C   0  0  0  0  0  0  0  0  0  0  0  0
    4.4852   -2.2654   -2.9344 C   0  0  0  0  0  0  0  0  0  0  0  0
    4.0364   -1.8373   -4.1918 C   0  0  0  0  0  0  0  0  0  0  0  0
    2.7369   -1.3751   -4.3632 C   0  0  0  0  0  0  0  0  0  0  0  0
   -0.6798   -0.1742   -5.2413 C   0  0  0  0  0  0  0  0  0  0  0  0
   -1.9809    0.2371   -5.4039 N   0  0  0  0  0  0  0  0  0  0  0  0
   -2.7118    0.2173   -4.2166 C   0  0  0  0  0  0  0  0  0  0  0  0
   -3.8821    0.5393   -4.1352 O   0  0  0  0  0  0  0  0  0  0  0  0
    0.1452   -0.2500   -6.1259 O   0  0  0  0  0  0  0  0  0  0  0  0
    0.0075   -4.5697    0.9113 O   0  0  0  0  0  0  0  0  0  0  0  0
    0.9316   -1.7260    0.9921 Ru  0  0  0  0  0  0  0  0  0  0  0  0
    0.4078   -3.4952    0.9422 C   0  0  0  0  0  0  0  0  0  0  0  0
   -2.3740    0.5160   -6.2909 H   0  0  0  0  0  0  0  0  0  0  0  0
    2.7970   -2.0141    1.6344 N   0  0  0  0  0  0  0  0  0  0  0  0
    2.8165    2.7035    1.3109 C   0  0  0  0  0  0  0  0  0  0  0  0
    6.2041   -5.0595    1.5564 H   0  0  0  0  0  0  0  0  0  0  0  0
    5.2457   -2.8774    0.9718 H   0  0  0  0  0  0  0  0  0  0  0  0
    3.4993   -0.9412    1.7893 C   0  0  0  0  0  0  0  0  0  0  0  0
    1.5000    2.5882    0.8860 C   0  0  0  0  0  0  0  0  0  0  0  0
    4.5112   -0.9689    2.1807 H   0  0  0  0  0  0  0  0  0  0  0  0
    1.5936    0.2146    1.0649 N   0  0  0  0  0  0  0  0  0  0  0  0
    3.5165    1.5509    1.6117 C   0  0  0  0  0  0  0  0  0  0  0  0
    5.7134   -2.2331   -5.0256 H   0  0  0  0  0  0  0  0  0  0  0  0
    0.9320    1.3280    0.7770 C   0  0  0  0  0  0  0  0  0  0  0  0
    0.1865   -1.4006    3.2838 Cl  0  0  0  0  0  0  0  0  0  0  0  0
    3.3759   -3.2523    1.9623 C   0  0  0  0  0  0  0  0  0  0  0  0
    2.6498   -4.1604    2.7325 C   0  0  0  0  0  0  0  0  0  0  0  0
    3.2032   -5.3811    3.0697 C   0  0  0  0  0  0  0  0  0  0  0  0
    4.4777   -5.7133    2.6367 C   0  0  0  0  0  0  0  0  0  0  0  0
    5.2091   -4.8074    1.8867 C   0  0  0  0  0  0  0  0  0  0  0  0
    4.6721   -3.5764    1.5600 C   0  0  0  0  0  0  0  0  0  0  0  0
    1.6697   -3.8799    3.0984 H   0  0  0  0  0  0  0  0  0  0  0  0
    2.6348   -6.0713    3.6731 H   0  0  0  0  0  0  0  0  0  0  0  0
    4.8974   -6.6736    2.8907 H   0  0  0  0  0  0  0  0  0  0  0  0
    2.8764    0.3181    1.4787 C   0  0  0  0  0  0  0  0  0  0  0  0
    4.5398    1.5829    1.9471 H   0  0  0  0  0  0  0  0  0  0  0  0
   -0.0943    1.2211    0.4492 H   0  0  0  0  0  0  0  0  0  0  0  0
    0.9118    3.4567    0.6412 H   0  0  0  0  0  0  0  0  0  0  0  0
    3.2799    3.6721    1.4052 H   0  0  0  0  0  0  0  0  0  0  0  0
  2  3  1  0  0  0  0
  5 17  1  0  0  0  0
  1 27  1  0  0  0  0
 34 38  2  0  0  0  0
 10 23  1  0  0  0  0
 12 16  1  0  0  0  0
  4 19  1  0  0  0  0
  6 25  1  0  0  0  0
 11 12  4  0  0  0  0
 21 22  4  0  0  0  0
 35 42  1  0  0  0  0
 47 48  4  0  0  0  0
 50 51  4  0  0  0  0
 13 14  4  0  0  0  0
 49 50  4  0  0  0  0
  5  6  4  0  0  0  0
 48 49  4  0  0  0  0
 39 44  1  0  0  0  0
 17 24  4  0  0  0  0
 18 21  4  0  0  0  0
 35 39  2  0  0  0  0
 41 55  1  0  0  0  0
 41 44  2  0  0  0  0
 23 24  4  0  0  0  0
 46 47  4  0  0  0  0
 42 55  2  0  0  0  0
 46 51  4  0  0  0  0
 12 13  4  0  0  0  0
 22 23  4  0  0  0  0
  1  6  4  0  0  0  0
  2 11  4  0  0  0  0
  3  4  4  0  0  0  0
 25 26  1  0  0  0  0
  3 14  4  0  0  0  0
 18 19  1  0  0  0  0
  1  2  4  0  0  0  0
 17 18  4  0  0  0  0
  4  5  4  0  0  0  0
 26 27  1  0  0  0  0
  7 21  1  0  0  0  0
 39 58  1  0  0  0  0
 42 56  1  0  0  0  0
 35 59  1  0  0  0  0
 11 15  1  0  0  0  0
 49 54  1  0  0  0  0
 36 50  1  0  0  0  0
 38 55  1  0  0  0  0
 48 53  1  0  0  0  0
 37 51  1  0  0  0  0
 20 24  1  0  0  0  0
  8 22  1  0  0  0  0
 26 33  1  0  0  0  0
 10 43  1  0  0  0  0
  9 13  1  0  0  0  0
 34 46  1  0  0  0  0
 44 57  1  0  0  0  0
 47 52  1  0  0  0  0
 38 40  1  0  0  0  0
 30 32  2  0  0  0  0
 25 29  2  0  0  0  0
 27 28  2  0  0  0  0
 31 32  1  0  0  0  0
 31 14  1  0  0  0  0
 31 19  1  0  0  0  0
 31 34  1  0  0  0  0
 31 41  1  0  0  0  0
 31 45  1  0  0  0  0
M  END
$$$$
