compound_6
  GFN2-xTB geometry (ORCA XTB2, DDCOSMO(water))

 56 64  0  0  0  0  0  0  0  0999 V2000
   -0.8257   -0.6011   -2.0588 C   0  0  0  0  0  0  0  0  0  0  0  0
   -1.2107   -0.7600   -0.7010 C   0  0  0  0  0  0  0  0  0  0  0  0
   -0.3371   -1.5068    0.1299 C   0  0  0  0  0  0  0  0  0  0  0  0
    0.8337   -2.0613   -0.4264 C   0  0  0  0  0  0  0  0  0  0  0  0
    1.2092   -1.9071   -1.7988 C   0  0  0  0  0  0  0  0  0  0  0  0
    0.3519   -1.1575   -2.5891 C   0  0  0  0  0  0  0  0  0  0  0  0
    3.9593   -4.4204    0.5978 H   0  0  0  0  0  0  0  0  0  0  0  0
    5.5212   -4.8447   -1.2716 H   0  0  0  0  0  0  0  0  0  0  0  0
   -1.8574   -1.4949    3.0124 H   0  0  0  0  0  0  0  0  0  0  0  0
    5.1202   -3.8982   -3.4913 H   0  0  0  0  0  0  0  0  0  0  0  0
   -2.3741   -0.2542   -0.0970 C   0  0  0  0  0  0  0  0  0  0  0  0
   -2.5988   -0.5255    1.2350 C   0  0  0  0  0  0  0  0  0  0  0  0
   -1.6761   -1.2753    1.9689 C   0  0  0  0  0  0  0  0  0  0  0  0
   -0.5626   -1.7477    1.4365 N   0  0  0  0  0  0  0  0  0  0  0  0
   -3.0658    0.3276   -0.6871 H   0  0  0  0  0  0  0  0  0  0  0  0
   -3.4885   -0.1597    1.7206 H   0  0  0  0  0  0  0  0  0  0  0  0
    2.4331   -2.6436   -1.9085 C   0  0  0  0  0  0  0  0  0  0  0  0
    2.6784   -3.1815   -0.6074 C   0  0  0  0  0  0  0  0  0  0  0  0
    1.6929   -2.8007    0.2735 N   0  0  0  0  0  0  0  0  0  0  0  0
    3.1300   -2.4936   -3.9327 H   0  0  0  0  0  0  0  0  0  0  0  0
    3.7883   -3.9842   -0.3739 C   0  0  0  0  0  0  0  0  0  0  0  0
    4.6509   -4.2249   -1.4250 C   0  0  0  0  0  0  0  0  0  0  0  0
    4.4236   -3.6892   -2.6929 C   0  0  0  0  0  0  0  0  0  0  0  0
    3.3166   -2.9026   -2.9489 C   0  0  0  0  0  0  0  0  0  0  0  0
    0.4196   -0.7924   -4.0155 C   0  0  0  0  0  0  0  0  0  0  0  0
   -0.7102   -0.0520   -4.2593 N   0  0  0  0  0  0  0  0  0  0  0  0
   -1.5091    0.1032   -3.1190 C   0  0  0  0  0  0  0  0  0  0  0  0
   -2.5593    0.7279   -3.1198 O   0  0  0  0  0  0  0  0  0  0  0  0
    1.2712   -1.0586   -4.8461 O   0  0  0  0  0  0  0  0  0  0  0  0
    0.1842   -4.9050    1.1006 H   0  0  0  0  0  0  0  0  0  0  0  0
    1.0738   -2.6910    2.2781 Ru  0  0  0  0  0  0  0  0  0  0  0  0
    0.0974   -4.5884    2.0670 N   0  0  0  0  0  0  0  0  0  0  0  0
    0.4925   -5.3164    2.6649 H   0  0  0  0  0  0  0  0  0  0  0  0
    2.1700   -0.6448    2.5064 S   0  0  0  0  0  0  0  0  0  0  0  0
    2.1718   -0.3454    4.3377 C   0  0  0  0  0  0  0  0  0  0  0  0
    0.8988   -0.8297    4.9991 C   0  0  0  0  0  0  0  0  0  0  0  0
    0.2782   -2.4617    4.4468 S   0  0  0  0  0  0  0  0  0  0  0  0
    1.3031   -3.6835    5.3531 C   0  0  0  0  0  0  0  0  0  0  0  0
    2.7590   -3.7426    4.9532 C   0  0  0  0  0  0  0  0  0  0  0  0
    3.0211   -3.7121    3.1107 S   0  0  0  0  0  0  0  0  0  0  0  0
    4.3327   -2.4331    2.9534 C   0  0  0  0  0  0  0  0  0  0  0  0
    3.9027   -1.1680    2.2341 C   0  0  0  0  0  0  0  0  0  0  0  0
    4.5393   -0.3282    2.5142 H   0  0  0  0  0  0  0  0  0  0  0  0
    2.2633    0.7343    4.4595 H   0  0  0  0  0  0  0  0  0  0  0  0
    3.0565   -0.8223    4.7473 H   0  0  0  0  0  0  0  0  0  0  0  0
    0.0727   -0.1549    4.7718 H   0  0  0  0  0  0  0  0  0  0  0  0
    1.0235   -0.8867    6.0798 H   0  0  0  0  0  0  0  0  0  0  0  0
    0.7989   -4.6273    5.1440 H   0  0  0  0  0  0  0  0  0  0  0  0
    1.2079   -3.4573    6.4145 H   0  0  0  0  0  0  0  0  0  0  0  0
    3.1927   -4.6854    5.2858 H   0  0  0  0  0  0  0  0  0  0  0  0
    3.3230   -2.9254    5.3927 H   0  0  0  0  0  0  0  0  0  0  0  0
    4.7064   -2.2255    3.9533 H   0  0  0  0  0  0  0  0  0  0  0  0
    5.1311   -2.9077    2.3825 H   0  0  0  0  0  0  0  0  0  0  0  0
    3.9488   -1.2980    1.1508 H   0  0  0  0  0  0  0  0  0  0  0  0
   -0.8975   -4.5111    2.2834 H   0  0  0  0  0  0  0  0  0  0  0  0
   -0.9440    0.3402   -5.1585 H   0  0  0  0  0  0  0  0  0  0  0  0
  1  2  1  0  0  0  0
  5 17  1  0  0  0  0
  1 27  1  0  0  0  0
  6 25  1  0  0  0  0
  4 19  1  0  0  0  0
 11 12  2  0  0  0  0
 21 22  4  0  0  0  0
 23 24  4  0  0  0  0
  3 14  1  0  0  0  0
 13 14  2  0  0  0  0
  5  6  1  0  0  0  0
 17 24  4  0  0  0  0
 18 21  4  0  0  0  0
 22 23  4  0  0  0  0
 12 13  1  0  0  0  0
 38 39  1  0  0  0  0
 35 36  1  0  0  0  0
  2 11  1  0  0  0  0
  1  6  2  0  0  0  0
 41 42  1  0  0  0  0
  3  4  1  0  0  0  0
 25 26  1  0  0  0  0
 18 19  1  0  0  0  0
  2  3  2  0  0  0  0
 17 18  4  0  0  0  0
  4  5  2  0  0  0  0
 12 16  1  0  0  0  0
  7 21  1  0  0  0  0
 26 27  1  0  0  0  0
 26 56  1  0  0  0  0
  8 22  1  0  0  0  0
 11 15  1  0  0  0  0
 10 23  1  0  0  0  0
 20 24  1  0  0  0  0
  9 13  1  0  0  0  0
 34 42  1  0  0  0  0
 36 37  1  0  0  0  0
 37 38  1  0  0  0  0
 35 45  1  0  0  0  0
 39 51  1  0  0  0  0
 40 41  1  0  0  0  0
 41 52  1  0  0  0  0
 36 47  1  0  0  0  0
 38 49  1  0  0  0  0
 39 50  1  0  0  0  0
 41 53  1  0  0  0  0
 38 48  1  0  0  0  0
 35 44  1  0  0  0  0
 42 43  1  0  0  0  0
 36 46  1  0  0  0  0
 42 54  1  0  0  0  0
 30 32  1  0  0  0  0
 32 55  1  0  0  0  0
 32 33  1  0  0  0  0
 34 35  1  0  0  0  0
 39 40  1  0  0  0  0
 25 29  2  0  0  0  0
 27 28  2  0  0  0  0
 31 32  1  0  0  0  0
 31 40  1  0  0  0  0
 31 14  1  0  0  0  0
 31 19  1  0  0  0  0
 31 34  1  0  0  0  0
 31 37  1  0  0  0  0
M  END
$$$$
