compound_51
  GFN2-xTB geometry (ORCA XTB2, DDCOSMO(water))

 67 75  0  0  0  0  0  0  0  0999 V2000
   -1.1608   -1.0921   -2.0694 C   0  0  0  0  0  0  0  0  0  0  0  0
   -1.2853   -0.7935   -0.6906 C   0  0  0  0  0  0  0  0  0  0  0  0
   -0.2218   -1.1980    0.1623 C   0  0  0  0  0  0  0  0  0  0  0  0
    0.9097   -1.8204   -0.4064 C   0  0  0  0  0  0  0  0  0  0  0  0
    1.0345   -2.0969   -1.8085 C   0  0  0  0  0  0  0  0  0  0  0  0
   -0.0333   -1.7416   -2.6099 C   0  0  0  0  0  0  0  0  0  0  0  0
    4.4668   -3.4912    0.6205 H   0  0  0  0  0  0  0  0  0  0  0  0
    5.7067   -4.4083   -1.2641 H   0  0  0  0  0  0  0  0  0  0  0  0
   -1.3105   -0.3451    3.1284 H   0  0  0  0  0  0  0  0  0  0  0  0
    4.8736   -4.3881   -3.8439 O   0  0  0  0  0  0  0  0  0  0  0  0
   -2.3941   -0.1830   -0.0874 C   0  0  0  0  0  0  0  0  0  0  0  0
   -2.3578   -0.0263    1.2792 C   0  0  0  0  0  0  0  0  0  0  0  0
   -1.2900   -0.4689    2.0547 C   0  0  0  0  0  0  0  0  0  0  0  0
   -0.2412   -1.0615    1.5017 N   0  0  0  0  0  0  0  0  0  0  0  0
   -3.2390    0.1330   -0.6774 H   0  0  0  0  0  0  0  0  0  0  0  0
   -3.3970    0.5611    1.9148 F   0  0  0  0  0  0  0  0  0  0  0  0
    2.2964   -2.7670   -1.9226 C   0  0  0  0  0  0  0  0  0  0  0  0
    2.8182   -2.8373   -0.5969 C   0  0  0  0  0  0  0  0  0  0  0  0
    1.9474   -2.2568    0.3047 N   0  0  0  0  0  0  0  0  0  0  0  0
    2.6077   -3.2509   -3.9941 H   0  0  0  0  0  0  0  0  0  0  0  0
    4.0532   -3.4268   -0.3718 C   0  0  0  0  0  0  0  0  0  0  0  0
    4.7504   -3.9482   -1.4450 C   0  0  0  0  0  0  0  0  0  0  0  0
    4.2384   -3.8906   -2.7461 C   0  0  0  0  0  0  0  0  0  0  0  0
    3.0028   -3.2931   -2.9897 C   0  0  0  0  0  0  0  0  0  0  0  0
   -0.2978   -1.9785   -4.0396 C   0  0  0  0  0  0  0  0  0  0  0  0
   -1.5376   -1.4404   -4.2776 N   0  0  0  0  0  0  0  0  0  0  0  0
   -2.1280   -0.9148   -3.1216 C   0  0  0  0  0  0  0  0  0  0  0  0
   -3.2531   -0.4349   -3.1047 O   0  0  0  0  0  0  0  0  0  0  0  0
    0.3884   -2.5406   -4.8753 O   0  0  0  0  0  0  0  0  0  0  0  0
   -2.0062   -1.4782   -5.1702 H   0  0  0  0  0  0  0  0  0  0  0  0
    1.2477   -2.2981    2.2842 Ru  0  0  0  0  0  0  0  0  0  0  0  0
   -0.6529   -4.1547    0.7350 C   0  0  0  0  0  0  0  0  0  0  0  0
   -1.6012   -4.5860   -0.4851 S   0  0  0  0  0  0  0  0  0  0  0  0
    2.6236   -0.5566    2.9864 S   0  0  0  0  0  0  0  0  0  0  0  0
    2.3785   -0.4856    4.8275 C   0  0  0  0  0  0  0  0  0  0  0  0
    0.9641   -0.8137    5.2460 C   0  0  0  0  0  0  0  0  0  0  0  0
    0.1600   -2.2372    4.3661 S   0  0  0  0  0  0  0  0  0  0  0  0
    0.5737   -3.6444    5.4513 C   0  0  0  0  0  0  0  0  0  0  0  0
    2.5957   -4.7658    4.3702 C   0  0  0  0  0  0  0  0  0  0  0  0
    2.9529   -3.8263    2.8366 S   0  0  0  0  0  0  0  0  0  0  0  0
    4.3568   -2.7581    3.4460 C   0  0  0  0  0  0  0  0  0  0  0  0
    4.2871   -1.3450    2.9174 C   0  0  0  0  0  0  0  0  0  0  0  0
    4.9592   -0.6925    3.4740 H   0  0  0  0  0  0  0  0  0  0  0  0
    2.6085    0.5435    5.1030 H   0  0  0  0  0  0  0  0  0  0  0  0
    3.1033   -1.1513    5.2822 H   0  0  0  0  0  0  0  0  0  0  0  0
    0.2953    0.0192    5.0306 H   0  0  0  0  0  0  0  0  0  0  0  0
    0.9168   -1.0493    6.3076 H   0  0  0  0  0  0  0  0  0  0  0  0
   -0.0090   -4.4715    5.0405 H   0  0  0  0  0  0  0  0  0  0  0  0
    0.1765   -3.3892    6.4331 H   0  0  0  0  0  0  0  0  0  0  0  0
    1.8886   -5.5314    4.0422 H   0  0  0  0  0  0  0  0  0  0  0  0
    3.5408   -5.2473    4.6217 H   0  0  0  0  0  0  0  0  0  0  0  0
    4.3554   -2.7968    4.5308 H   0  0  0  0  0  0  0  0  0  0  0  0
    5.2628   -3.2387    3.0778 H   0  0  0  0  0  0  0  0  0  0  0  0
    4.5327   -1.3011    1.8557 H   0  0  0  0  0  0  0  0  0  0  0  0
    0.0161   -3.8865    1.6558 N   0  0  0  0  0  0  0  0  0  0  0  0
    6.1386   -5.0062   -3.6768 C   0  0  0  0  0  0  0  0  0  0  0  0
    6.4379   -5.3140   -4.6763 H   0  0  0  0  0  0  0  0  0  0  0  0
    6.0652   -5.8835   -3.0300 H   0  0  0  0  0  0  0  0  0  0  0  0
    6.8698   -4.3010   -3.2754 H   0  0  0  0  0  0  0  0  0  0  0  0
    2.0487   -4.0194    5.5987 C   0  0  0  0  0  0  0  0  0  0  0  0
    2.1619   -4.8138    6.8029 N   0  0  0  0  0  0  0  0  0  0  0  0
    3.4943   -4.8989    7.3707 C   0  0  0  0  0  0  0  0  0  0  0  0
    4.2287   -5.4054    6.7331 H   0  0  0  0  0  0  0  0  0  0  0  0
    3.4301   -5.4441    8.3103 H   0  0  0  0  0  0  0  0  0  0  0  0
    3.8451   -3.8910    7.5832 H   0  0  0  0  0  0  0  0  0  0  0  0
    1.7615   -5.7356    6.6722 H   0  0  0  0  0  0  0  0  0  0  0  0
    2.6208   -3.1102    5.7852 H   0  0  0  0  0  0  0  0  0  0  0  0
  2  3  1  0  0  0  0
  5 17  1  0  0  0  0
  1 27  1  0  0  0  0
 10 23  1  0  0  0  0
  6 25  1  0  0  0  0
  4 19  1  0  0  0  0
 12 16  1  0  0  0  0
 11 12  4  0  0  0  0
  5  6  4  0  0  0  0
 21 22  4  0  0  0  0
 17 24  4  0  0  0  0
 18 21  4  0  0  0  0
 13 14  4  0  0  0  0
 12 13  4  0  0  0  0
 23 24  4  0  0  0  0
 22 23  4  0  0  0  0
 41 42  1  0  0  0  0
 35 36  1  0  0  0  0
  2 11  4  0  0  0  0
  1  6  4  0  0  0  0
 25 26  1  0  0  0  0
  3 14  4  0  0  0  0
  3  4  4  0  0  0  0
 10 56  1  0  0  0  0
  1  2  4  0  0  0  0
 38 60  1  0  0  0  0
 18 19  1  0  0  0  0
 39 60  1  0  0  0  0
 17 18  4  0  0  0  0
  4  5  4  0  0  0  0
  8 22  1  0  0  0  0
  7 21  1  0  0  0  0
 11 15  1  0  0  0  0
 26 27  1  0  0  0  0
 37 38  1  0  0  0  0
 26 30  1  0  0  0  0
 20 24  1  0  0  0  0
  9 13  1  0  0  0  0
 39 40  1  0  0  0  0
 35 45  1  0  0  0  0
 61 66  1  0  0  0  0
 41 52  1  0  0  0  0
 56 57  1  0  0  0  0
 62 65  1  0  0  0  0
 62 64  1  0  0  0  0
 36 47  1  0  0  0  0
 34 42  1  0  0  0  0
 38 49  1  0  0  0  0
 41 53  1  0  0  0  0
 42 43  1  0  0  0  0
 36 46  1  0  0  0  0
 35 44  1  0  0  0  0
 39 51  1  0  0  0  0
 60 67  1  0  0  0  0
 42 54  1  0  0  0  0
 38 48  1  0  0  0  0
 56 59  1  0  0  0  0
 56 58  1  0  0  0  0
 39 50  1  0  0  0  0
 62 63  1  0  0  0  0
 36 37  1  0  0  0  0
 34 35  1  0  0  0  0
 40 41  1  0  0  0  0
 60 61  1  0  0  0  0
 61 62  1  0  0  0  0
 32 55  2  0  0  0  0
 25 29  2  0  0  0  0
 27 28  2  0  0  0  0
 32 33  2  0  0  0  0
 31 40  1  0  0  0  0
 31 55  1  0  0  0  0
 31 14  1  0  0  0  0
 31 19  1  0  0  0  0
 31 34  1  0  0  0  0
 31 37  1  0  0  0  0
M  END
$$$$
