compound_27
  GFN2-xTB geometry (ORCA XTB2, DDCOSMO(water))

 43 53  0  0  0  0  0  0  0  0999 V2000
    0.2182   -0.8083   -1.0947 C   0  0  0  0  0  0  0  0  0  0  0  0
   -0.7925   -0.9815   -0.1151 C   0  0  0  0  0  0  0  0  0  0  0  0
   -0.7647   -2.2092    0.5926 C   0  0  0  0  0  0  0  0  0  0  0  0
    0.2231   -3.1544    0.2923 C   0  0  0  0  0  0  0  0  0  0  0  0
    1.2402   -2.9773   -0.6798 C   0  0  0  0  0  0  0  0  0  0  0  0
    1.2014   -1.7691   -1.3673 C   0  0  0  0  0  0  0  0  0  0  0  0
    1.4303   -6.8259    1.5128 H   0  0  0  0  0  0  0  0  0  0  0  0
    3.4408   -7.6372    0.3162 H   0  0  0  0  0  0  0  0  0  0  0  0
   -3.2707   -1.9687    2.6628 H   0  0  0  0  0  0  0  0  0  0  0  0
   -2.8661   -6.4574    3.9265 H   0  0  0  0  0  0  0  0  0  0  0  0
   -1.8082   -0.0797    0.2480 C   0  0  0  0  0  0  0  0  0  0  0  0
   -2.6808   -0.4441    1.2493 C   0  0  0  0  0  0  0  0  0  0  0  0
   -2.5698   -1.6836    1.8902 C   0  0  0  0  0  0  0  0  0  0  0  0
   -1.6263   -2.5552    1.5754 N   0  0  0  0  0  0  0  0  0  0  0  0
   -1.8854    0.8693   -0.2585 H   0  0  0  0  0  0  0  0  0  0  0  0
   -0.5679   -2.8930    4.8718 H   0  0  0  0  0  0  0  0  0  0  0  0
    2.0142   -4.1844   -0.5943 C   0  0  0  0  0  0  0  0  0  0  0  0
    1.3968   -4.9768    0.4223 C   0  0  0  0  0  0  0  0  0  0  0  0
    0.3021   -4.3236    0.9537 N   0  0  0  0  0  0  0  0  0  0  0  0
    3.5968   -4.0559   -2.0319 H   0  0  0  0  0  0  0  0  0  0  0  0
    1.9073   -6.2246    0.7535 C   0  0  0  0  0  0  0  0  0  0  0  0
    3.0271   -6.6704    0.0757 C   0  0  0  0  0  0  0  0  0  0  0  0
    3.6329   -5.8998   -0.9150 C   0  0  0  0  0  0  0  0  0  0  0  0
    3.1357   -4.6562   -1.2617 C   0  0  0  0  0  0  0  0  0  0  0  0
    2.0794   -1.2321   -2.4318 C   0  0  0  0  0  0  0  0  0  0  0  0
    1.5731    0.0110   -2.7294 N   0  0  0  0  0  0  0  0  0  0  0  0
    0.4531    0.3392   -1.9693 C   0  0  0  0  0  0  0  0  0  0  0  0
   -0.1509    1.3879   -2.0665 O   0  0  0  0  0  0  0  0  0  0  0  0
    3.0478   -1.7381   -2.9570 O   0  0  0  0  0  0  0  0  0  0  0  0
    1.9674    0.6234   -3.4285 H   0  0  0  0  0  0  0  0  0  0  0  0
   -1.1947   -4.4492    2.3352 Ru  0  0  0  0  0  0  0  0  0  0  0  0
   -2.4385   -5.1001    0.9487 C   0  0  0  0  0  0  0  0  0  0  0  0
   -3.1452   -5.5318    0.1465 N   0  0  0  0  0  0  0  0  0  0  0  0
   -0.8253   -3.8575    4.4550 C   0  0  0  0  0  0  0  0  0  0  0  0
   -2.1553   -4.3783    4.3324 C   0  0  0  0  0  0  0  0  0  0  0  0
   -2.0503   -5.7474    3.9707 C   0  0  0  0  0  0  0  0  0  0  0  0
   -0.6694   -6.0598    3.8189 C   0  0  0  0  0  0  0  0  0  0  0  0
    0.0793   -4.8939    4.1482 C   0  0  0  0  0  0  0  0  0  0  0  0
   -3.0558   -3.8889    4.6780 H   0  0  0  0  0  0  0  0  0  0  0  0
   -0.2643   -7.0516    3.6759 H   0  0  0  0  0  0  0  0  0  0  0  0
   -3.4700    0.2237    1.5525 H   0  0  0  0  0  0  0  0  0  0  0  0
    4.5041   -6.2830   -1.4227 H   0  0  0  0  0  0  0  0  0  0  0  0
    1.1546   -4.8512    4.2516 H   0  0  0  0  0  0  0  0  0  0  0  0
  1  2  1  0  0  0  0
  5 17  1  0  0  0  0
  1 27  1  0  0  0  0
  6 25  1  0  0  0  0
 11 12  2  0  0  0  0
  4 19  1  0  0  0  0
 21 22  4  0  0  0  0
 23 24  4  0  0  0  0
 13 14  2  0  0  0  0
 17 24  4  0  0  0  0
 18 21  4  0  0  0  0
  3 14  1  0  0  0  0
  5  6  1  0  0  0  0
 22 23  4  0  0  0  0
  3  4  1  0  0  0  0
 12 13  1  0  0  0  0
  1  6  2  0  0  0  0
  2 11  1  0  0  0  0
 34 38  4  0  0  0  0
 25 26  1  0  0  0  0
  2  3  2  0  0  0  0
  4  5  2  0  0  0  0
 18 19  1  0  0  0  0
 35 36  4  0  0  0  0
 36 37  4  0  0  0  0
 37 38  4  0  0  0  0
 17 18  4  0  0  0  0
 26 27  1  0  0  0  0
 34 35  4  0  0  0  0
 12 41  1  0  0  0  0
 11 15  1  0  0  0  0
 23 42  1  0  0  0  0
  8 22  1  0  0  0  0
  7 21  1  0  0  0  0
 20 24  1  0  0  0  0
 26 30  1  0  0  0  0
 37 40  1  0  0  0  0
 38 43  1  0  0  0  0
  9 13  1  0  0  0  0
 35 39  1  0  0  0  0
 16 34  1  0  0  0  0
 10 36  1  0  0  0  0
 32 33  3  0  0  0  0
 25 29  2  0  0  0  0
 27 28  2  0  0  0  0
 31 19  1  0  0  0  0
 31 32  1  0  0  0  0
 31 34  1  0  0  0  0
 31 35  1  0  0  0  0
 31 36  1  0  0  0  0
 31 37  1  0  0  0  0
 31 38  1  0  0  0  0
 31 14  1  0  0  0  0
M  END
$$$$
