compound_26
  GFN2-xTB geometry (ORCA XTB2, DDCOSMO(water))

 57 66  0  0  0  0  0  0  0  0999 V2000
    0.5443   -0.7341   -0.3622 C   0  0  0  0  0  0  0  0  0  0  0  0
   -0.6828   -1.0027    0.2926 C   0  0  0  0  0  0  0  0  0  0  0  0
   -0.8973   -2.3454    0.7011 C   0  0  0  0  0  0  0  0  0  0  0  0
    0.0707   -3.3175    0.4003 C   0  0  0  0  0  0  0  0  0  0  0  0
    1.2935   -3.0481   -0.2859 C   0  0  0  0  0  0  0  0  0  0  0  0
    1.5054   -1.7217   -0.6296 C   0  0  0  0  0  0  0  0  0  0  0  0
    0.7597   -7.2639    0.9577 H   0  0  0  0  0  0  0  0  0  0  0  0
    2.9368   -8.0194    0.0456 H   0  0  0  0  0  0  0  0  0  0  0  0
   -3.7912   -2.2357    2.2226 H   0  0  0  0  0  0  0  0  0  0  0  0
   -1.6637   -6.9253    4.2851 H   0  0  0  0  0  0  0  0  0  0  0  0
   -1.6901   -0.0807    0.6167 C   0  0  0  0  0  0  0  0  0  0  0  0
   -2.7885   -0.5610    1.2929 C   0  0  0  0  0  0  0  0  0  0  0  0
   -2.9170   -1.8984    1.6828 C   0  0  0  0  0  0  0  0  0  0  0  0
   -1.9703   -2.7736    1.3952 N   0  0  0  0  0  0  0  0  0  0  0  0
   -1.5990    0.9599    0.3497 H   0  0  0  0  0  0  0  0  0  0  0  0
   -3.7888    0.2806    1.6226 F   0  0  0  0  0  0  0  0  0  0  0  0
    1.9478   -4.3227   -0.3360 C   0  0  0  0  0  0  0  0  0  0  0  0
    1.0763   -5.2379    0.3298 C   0  0  0  0  0  0  0  0  0  0  0  0
   -0.0578   -4.5925    0.7674 N   0  0  0  0  0  0  0  0  0  0  0  0
    3.8186   -4.0745   -1.3704 H   0  0  0  0  0  0  0  0  0  0  0  0
    1.4263   -6.5749    0.4626 C   0  0  0  0  0  0  0  0  0  0  0  0
    2.6362   -6.9871   -0.0536 C   0  0  0  0  0  0  0  0  0  0  0  0
    3.4988   -6.0939   -0.7038 C   0  0  0  0  0  0  0  0  0  0  0  0
    3.1550   -4.7570   -0.8619 C   0  0  0  0  0  0  0  0  0  0  0  0
    2.6727   -1.0567   -1.2564 C   0  0  0  0  0  0  0  0  0  0  0  0
    2.3289    0.2695   -1.3502 N   0  0  0  0  0  0  0  0  0  0  0  0
    1.0651    0.5432   -0.8264 C   0  0  0  0  0  0  0  0  0  0  0  0
    0.5704    1.6537   -0.7974 O   0  0  0  0  0  0  0  0  0  0  0  0
    3.7300   -1.5339   -1.6081 O   0  0  0  0  0  0  0  0  0  0  0  0
    2.9339    0.9808   -1.7339 H   0  0  0  0  0  0  0  0  0  0  0  0
   -1.5280   -4.6303    2.2336 Ru  0  0  0  0  0  0  0  0  0  0  0  0
   -2.7656   -5.5520    1.2271 C   0  0  0  0  0  0  0  0  0  0  0  0
   -3.5450   -6.1499    0.6289 O   0  0  0  0  0  0  0  0  0  0  0  0
   -1.3576   -3.6051    4.2280 C   0  0  0  0  0  0  0  0  0  0  0  0
   -2.1705   -4.7459    4.4131 C   0  0  0  0  0  0  0  0  0  0  0  0
   -1.3741   -5.8983    4.1051 C   0  0  0  0  0  0  0  0  0  0  0  0
   -0.0884   -5.4572    3.7134 C   0  0  0  0  0  0  0  0  0  0  0  0
   -0.0737   -4.0215    3.7786 C   0  0  0  0  0  0  0  0  0  0  0  0
   -3.1393   -4.7604    4.8905 H   0  0  0  0  0  0  0  0  0  0  0  0
    0.7616   -6.1000    3.5299 H   0  0  0  0  0  0  0  0  0  0  0  0
    4.6998   -6.5003   -1.1847 O   0  0  0  0  0  0  0  0  0  0  0  0
   -1.6156   -2.5826    4.4715 H   0  0  0  0  0  0  0  0  0  0  0  0
    1.0211   -3.0882    3.4581 C   0  0  0  0  0  0  0  0  0  0  0  0
    5.0706   -3.1974    1.2190 O   0  0  0  0  0  0  0  0  0  0  0  0
    0.8125   -1.8797    3.2935 O   0  0  0  0  0  0  0  0  0  0  0  0
    2.2507   -3.6218    3.3425 N   0  0  0  0  0  0  0  0  0  0  0  0
    3.3804   -2.8830    2.8320 C   0  0  0  0  0  0  0  0  0  0  0  0
    4.2423   -3.8352    2.0152 C   0  0  0  0  0  0  0  0  0  0  0  0
    4.1822   -5.0366    2.1268 O   0  0  0  0  0  0  0  0  0  0  0  0
    4.5899   -3.0779    4.6147 H   0  0  0  0  0  0  0  0  0  0  0  0
    2.4037   -4.6171    3.4389 H   0  0  0  0  0  0  0  0  0  0  0  0
    5.6468   -3.8039    0.7158 H   0  0  0  0  0  0  0  0  0  0  0  0
    3.0145   -2.0762    2.1858 H   0  0  0  0  0  0  0  0  0  0  0  0
    3.6232   -1.5943    4.5379 H   0  0  0  0  0  0  0  0  0  0  0  0
    5.0774   -1.7521    3.5407 H   0  0  0  0  0  0  0  0  0  0  0  0
    4.2314   -2.2866    3.9615 C   0  0  0  0  0  0  0  0  0  0  0  0
    4.8172   -7.4474   -1.0145 H   0  0  0  0  0  0  0  0  0  0  0  0
 44 48  1  0  0  0  0
  2  3  1  0  0  0  0
  5 17  1  0  0  0  0
  1 27  1  0  0  0  0
 23 41  1  0  0  0  0
 12 16  1  0  0  0  0
 38 43  1  0  0  0  0
  4 19  1  0  0  0  0
  6 25  1  0  0  0  0
 11 12  4  0  0  0  0
 21 22  4  0  0  0  0
 43 46  1  0  0  0  0
 13 14  4  0  0  0  0
 17 24  4  0  0  0  0
  5  6  4  0  0  0  0
 18 21  4  0  0  0  0
 23 24  4  0  0  0  0
 12 13  4  0  0  0  0
 22 23  4  0  0  0  0
  2 11  4  0  0  0  0
  1  6  4  0  0  0  0
  3  4  4  0  0  0  0
 25 26  1  0  0  0  0
 47 48  1  0  0  0  0
  3 14  4  0  0  0  0
 34 35  4  0  0  0  0
 18 19  1  0  0  0  0
 36 37  4  0  0  0  0
  1  2  4  0  0  0  0
 47 56  1  0  0  0  0
 34 38  4  0  0  0  0
  4  5  4  0  0  0  0
 17 18  4  0  0  0  0
 26 27  1  0  0  0  0
 35 36  4  0  0  0  0
 37 38  4  0  0  0  0
 11 15  1  0  0  0  0
  7 21  1  0  0  0  0
 20 24  1  0  0  0  0
  8 22  1  0  0  0  0
 35 39  1  0  0  0  0
 26 30  1  0  0  0  0
 41 57  1  0  0  0  0
 37 40  1  0  0  0  0
  9 13  1  0  0  0  0
 10 36  1  0  0  0  0
 34 42  1  0  0  0  0
 46 51  1  0  0  0  0
 55 56  1  0  0  0  0
 50 56  1  0  0  0  0
 54 56  1  0  0  0  0
 44 52  1  0  0  0  0
 47 53  1  0  0  0  0
 46 47  1  0  0  0  0
 32 33  2  0  0  0  0
 48 49  2  0  0  0  0
 25 29  2  0  0  0  0
 27 28  2  0  0  0  0
 43 45  2  0  0  0  0
 31 19  1  0  0  0  0
 31 32  1  0  0  0  0
 31 34  1  0  0  0  0
 31 35  1  0  0  0  0
 31 36  1  0  0  0  0
 31 37  1  0  0  0  0
 31 14  1  0  0  0  0
M  END
$$$$
