compound_79
  GFN2-xTB geometry (ORCA XTB2, DDCOSMO(water))

 56 65  0  0  0  0  0  0  0  0999 V2000
   -1.0467   -0.9762    0.9392 Ru  0  0  0  0  0  0  0  0  0  0  0  0
   -0.3508   -0.3565   -1.1726 C   0  0  0  0  0  0  0  0  0  0  0  0
   -1.1918    0.6607   -0.6731 C   0  0  0  0  0  0  0  0  0  0  0  0
   -0.8916    1.3445    0.5303 C   0  0  0  0  0  0  0  0  0  0  0  0
    0.2341    0.9052    1.2608 C   0  0  0  0  0  0  0  0  0  0  0  0
    1.0599   -0.1450    0.7908 C   0  0  0  0  0  0  0  0  0  0  0  0
    0.8119   -0.7503   -0.4683 C   0  0  0  0  0  0  0  0  0  0  0  0
   -2.0312    0.9866   -1.2774 H   0  0  0  0  0  0  0  0  0  0  0  0
    2.2119   -2.3534   -0.2601 H   0  0  0  0  0  0  0  0  0  0  0  0
    0.5166    1.4364    2.1644 H   0  0  0  0  0  0  0  0  0  0  0  0
    1.9691   -0.3950    1.3270 H   0  0  0  0  0  0  0  0  0  0  0  0
   -3.3317   -1.5438    0.5815 Cl  0  0  0  0  0  0  0  0  0  0  0  0
   -0.5537   -0.7793   -2.1504 H   0  0  0  0  0  0  0  0  0  0  0  0
   -0.7191   -6.1391    1.6161 C   0  0  0  0  0  0  0  0  0  0  0  0
   -0.8766   -4.9706    2.3852 C   0  0  0  0  0  0  0  0  0  0  0  0
   -1.0354   -5.4498    3.7162 C   0  0  0  0  0  0  0  0  0  0  0  0
   -0.9802   -6.7630    3.7615 N   0  0  0  0  0  0  0  0  0  0  0  0
   -0.7908   -7.1475    2.4653 N   0  0  0  0  0  0  0  0  0  0  0  0
   -1.1919   -4.5816    4.7628 N   0  0  0  0  0  0  0  0  0  0  0  0
   -1.2357   -3.2396    4.5808 C   0  0  0  0  0  0  0  0  0  0  0  0
   -1.3432   -2.4338    5.4832 O   0  0  0  0  0  0  0  0  0  0  0  0
   -1.1390   -2.7976    3.2507 N   0  0  0  0  0  0  0  0  0  0  0  0
   -0.9194   -3.5840    2.1351 C   0  0  0  0  0  0  0  0  0  0  0  0
   -1.2716   -4.9369    5.7072 H   0  0  0  0  0  0  0  0  0  0  0  0
   -0.7305   -2.9638    1.0124 N   0  0  0  0  0  0  0  0  0  0  0  0
   -0.3955   -0.9638    3.5010 H   0  0  0  0  0  0  0  0  0  0  0  0
   -0.6978   -8.5451    2.1602 C   0  0  0  0  0  0  0  0  0  0  0  0
   -1.4279    2.7659    2.0171 H   0  0  0  0  0  0  0  0  0  0  0  0
   -1.6274   -9.0472    2.4286 H   0  0  0  0  0  0  0  0  0  0  0  0
    0.1140   -8.9945    2.7314 H   0  0  0  0  0  0  0  0  0  0  0  0
   -1.2094   -1.4002    3.0328 N   0  0  0  0  0  0  0  0  0  0  0  0
   -0.5116   -8.6566    1.0956 H   0  0  0  0  0  0  0  0  0  0  0  0
   -0.5784   -3.5679    0.2066 H   0  0  0  0  0  0  0  0  0  0  0  0
    1.7649   -1.7416   -1.0397 C   0  0  0  0  0  0  0  0  0  0  0  0
    2.5693   -1.2017   -1.5416 H   0  0  0  0  0  0  0  0  0  0  0  0
    1.2817   -2.3814   -1.7727 H   0  0  0  0  0  0  0  0  0  0  0  0
   -1.6735    2.5566    0.9728 C   0  0  0  0  0  0  0  0  0  0  0  0
   -1.2354    3.7577    0.1254 C   0  0  0  0  0  0  0  0  0  0  0  0
   -3.1847    2.3411    0.8773 C   0  0  0  0  0  0  0  0  0  0  0  0
   -3.7058    3.1421    1.3939 H   0  0  0  0  0  0  0  0  0  0  0  0
   -3.4733    1.3956    1.3389 H   0  0  0  0  0  0  0  0  0  0  0  0
   -3.5249    2.3358   -0.1555 H   0  0  0  0  0  0  0  0  0  0  0  0
   -0.1677    3.9334    0.2287 H   0  0  0  0  0  0  0  0  0  0  0  0
   -1.7656    4.6485    0.4509 H   0  0  0  0  0  0  0  0  0  0  0  0
   -1.4598    3.5918   -0.9257 H   0  0  0  0  0  0  0  0  0  0  0  0
   -2.3882   -0.7735    3.5609 C   0  0  0  0  0  0  0  0  0  0  0  0
   -3.5997   -1.4510    3.6422 C   0  0  0  0  0  0  0  0  0  0  0  0
   -4.7190   -0.7883    4.1128 C   0  0  0  0  0  0  0  0  0  0  0  0
   -4.6383    0.5392    4.5015 C   0  0  0  0  0  0  0  0  0  0  0  0
   -3.4261    1.2062    4.4345 C   0  0  0  0  0  0  0  0  0  0  0  0
   -2.2989    0.5512    3.9767 C   0  0  0  0  0  0  0  0  0  0  0  0
   -3.6770   -2.4834    3.3330 H   0  0  0  0  0  0  0  0  0  0  0  0
   -5.6587   -1.3150    4.1737 H   0  0  0  0  0  0  0  0  0  0  0  0
   -5.5194    1.0458    4.8623 H   0  0  0  0  0  0  0  0  0  0  0  0
   -3.3598    2.2356    4.7479 H   0  0  0  0  0  0  0  0  0  0  0  0
   -1.3502    1.0640    3.9480 H   0  0  0  0  0  0  0  0  0  0  0  0
 15 16  1  0  0  0  0
 14 18  1  0  0  0  0
 23 25  2  0  0  0  0
  7 34  1  0  0  0  0
 50 51  4  0  0  0  0
 47 48  4  0  0  0  0
 49 50  4  0  0  0  0
 48 49  4  0  0  0  0
 46 47  4  0  0  0  0
 46 51  4  0  0  0  0
 19 20  1  0  0  0  0
 17 18  1  0  0  0  0
  4 37  1  0  0  0  0
 16 19  1  0  0  0  0
 14 15  2  0  0  0  0
 15 23  1  0  0  0  0
  2  3  4  0  0  0  0
  4  5  4  0  0  0  0
  2  7  4  0  0  0  0
  3  4  4  0  0  0  0
  5  6  4  0  0  0  0
 37 39  1  0  0  0  0
  6  7  4  0  0  0  0
 22 23  1  0  0  0  0
 37 38  1  0  0  0  0
 50 55  1  0  0  0  0
 49 54  1  0  0  0  0
 51 56  1  0  0  0  0
 48 53  1  0  0  0  0
 47 52  1  0  0  0  0
 20 22  1  0  0  0  0
 22 31  1  0  0  0  0
 19 24  1  0  0  0  0
  2 13  1  0  0  0  0
  3  8  1  0  0  0  0
  6 11  1  0  0  0  0
  5 10  1  0  0  0  0
 39 40  1  0  0  0  0
 34 36  1  0  0  0  0
 38 44  1  0  0  0  0
 27 32  1  0  0  0  0
 38 43  1  0  0  0  0
  9 34  1  0  0  0  0
 39 42  1  0  0  0  0
 38 45  1  0  0  0  0
 27 30  1  0  0  0  0
 25 33  1  0  0  0  0
 27 29  1  0  0  0  0
 34 35  1  0  0  0  0
 39 41  1  0  0  0  0
 28 37  1  0  0  0  0
 18 27  1  0  0  0  0
 31 46  1  0  0  0  0
 26 31  1  0  0  0  0
 20 21  2  0  0  0  0
 16 17  2  0  0  0  0
  1  2  1  0  0  0  0
  1  3  1  0  0  0  0
  1  4  1  0  0  0  0
  1  5  1  0  0  0  0
  1  6  1  0  0  0  0
  1  7  1  0  0  0  0
  1 12  1  0  0  0  0
  1 25  1  0  0  0  0
  1 31  1  0  0  0  0
M  END
$$$$
