compound_58
  GFN2-xTB geometry (ORCA XTB2, DDCOSMO(water))

 46 52  0  0  0  0  0  0  0  0999 V2000
   -0.6243   -2.8570    1.2489 Ru  0  0  0  0  0  0  0  0  0  0  0  0
    0.8896   -3.7460   -1.0763 C   0  0  0  0  0  0  0  0  0  0  0  0
    1.4606   -4.6482   -1.9723 C   0  0  0  0  0  0  0  0  0  0  0  0
    1.3160   -6.0051   -1.7638 C   0  0  0  0  0  0  0  0  0  0  0  0
    0.5843   -6.4359   -0.6639 C   0  0  0  0  0  0  0  0  0  0  0  0
    0.0448   -5.4920    0.1866 C   0  0  0  0  0  0  0  0  0  0  0  0
    0.1990   -4.1808    0.0040 N   0  0  0  0  0  0  0  0  0  0  0  0
    2.0058   -4.2727   -2.8214 H   0  0  0  0  0  0  0  0  0  0  0  0
    1.7537   -6.7155   -2.4459 H   0  0  0  0  0  0  0  0  0  0  0  0
    0.4314   -7.4834   -0.4670 H   0  0  0  0  0  0  0  0  0  0  0  0
   -0.5492   -5.7919    1.0412 H   0  0  0  0  0  0  0  0  0  0  0  0
    0.9129   -2.2971   -1.1783 C   0  0  0  0  0  0  0  0  0  0  0  0
    1.5172   -1.5621   -2.1979 C   0  0  0  0  0  0  0  0  0  0  0  0
    1.4074   -0.1865   -2.2004 C   0  0  0  0  0  0  0  0  0  0  0  0
    0.6873    0.4539   -1.2020 C   0  0  0  0  0  0  0  0  0  0  0  0
    0.0878   -0.2771   -0.1881 C   0  0  0  0  0  0  0  0  0  0  0  0
    0.1981   -1.6583   -0.1484 C   0  0  0  0  0  0  0  0  0  0  0  0
    2.0589   -2.0629   -2.9847 H   0  0  0  0  0  0  0  0  0  0  0  0
    1.8692    0.3918   -2.9858 H   0  0  0  0  0  0  0  0  0  0  0  0
    0.5878    1.5293   -1.2150 H   0  0  0  0  0  0  0  0  0  0  0  0
   -0.4858    0.2434    0.5676 H   0  0  0  0  0  0  0  0  0  0  0  0
   -2.6276   -2.9693   -0.1767 Cl  0  0  0  0  0  0  0  0  0  0  0  0
   -0.5212   -1.3560    3.0727 C   0  0  0  0  0  0  0  0  0  0  0  0
   -1.7566   -1.9972    3.2309 C   0  0  0  0  0  0  0  0  0  0  0  0
   -1.7646   -3.4236    3.3398 C   0  0  0  0  0  0  0  0  0  0  0  0
   -0.5880   -4.1569    3.2743 C   0  0  0  0  0  0  0  0  0  0  0  0
    0.6447   -3.5227    2.9484 C   0  0  0  0  0  0  0  0  0  0  0  0
    0.6671   -2.1030    2.8636 C   0  0  0  0  0  0  0  0  0  0  0  0
   -2.8465   -0.5853    4.3732 H   0  0  0  0  0  0  0  0  0  0  0  0
   -0.4603   -0.2775    3.1431 H   0  0  0  0  0  0  0  0  0  0  0  0
   -2.6896   -3.9351    3.5676 H   0  0  0  0  0  0  0  0  0  0  0  0
    1.6182   -1.5849    2.7920 H   0  0  0  0  0  0  0  0  0  0  0  0
   -0.6025   -5.2196    3.4806 H   0  0  0  0  0  0  0  0  0  0  0  0
   -3.0035   -1.1585    3.4501 C   0  0  0  0  0  0  0  0  0  0  0  0
   -3.1882   -0.1631    2.2976 C   0  0  0  0  0  0  0  0  0  0  0  0
   -4.2780   -1.9848    3.6104 C   0  0  0  0  0  0  0  0  0  0  0  0
   -4.2247   -2.6385    4.4772 H   0  0  0  0  0  0  0  0  0  0  0  0
   -4.4576   -2.5820    2.7155 H   0  0  0  0  0  0  0  0  0  0  0  0
   -5.1262   -1.3184    3.7430 H   0  0  0  0  0  0  0  0  0  0  0  0
   -2.3822    0.5633    2.2587 H   0  0  0  0  0  0  0  0  0  0  0  0
   -4.1256    0.3739    2.4126 H   0  0  0  0  0  0  0  0  0  0  0  0
   -3.2166   -0.6955    1.3438 H   0  0  0  0  0  0  0  0  0  0  0  0
    1.9264   -4.3031    2.9233 C   0  0  0  0  0  0  0  0  0  0  0  0
    1.7612   -5.3196    2.5744 H   0  0  0  0  0  0  0  0  0  0  0  0
    2.3391   -4.3489    3.9314 H   0  0  0  0  0  0  0  0  0  0  0  0
    2.6537   -3.8187    2.2746 H   0  0  0  0  0  0  0  0  0  0  0  0
  2 12  1  0  0  0  0
 13 14  4  0  0  0  0
  5  6  4  0  0  0  0
  3  4  4  0  0  0  0
 15 16  4  0  0  0  0
 16 17  4  0  0  0  0
 14 15  4  0  0  0  0
 25 26  4  0  0  0  0
  4  5  4  0  0  0  0
 27 43  1  0  0  0  0
  2  3  4  0  0  0  0
 12 13  4  0  0  0  0
  6  7  4  0  0  0  0
 23 24  4  0  0  0  0
 12 17  4  0  0  0  0
 24 34  1  0  0  0  0
 34 36  1  0  0  0  0
  2  7  4  0  0  0  0
 23 28  4  0  0  0  0
 34 35  1  0  0  0  0
 27 28  4  0  0  0  0
 26 27  4  0  0  0  0
 24 25  4  0  0  0  0
  3  8  1  0  0  0  0
  5 10  1  0  0  0  0
  4  9  1  0  0  0  0
 13 18  1  0  0  0  0
 14 19  1  0  0  0  0
 15 20  1  0  0  0  0
 25 31  1  0  0  0  0
 16 21  1  0  0  0  0
 23 30  1  0  0  0  0
 26 33  1  0  0  0  0
  6 11  1  0  0  0  0
 28 32  1  0  0  0  0
 35 40  1  0  0  0  0
 35 41  1  0  0  0  0
 36 39  1  0  0  0  0
 36 37  1  0  0  0  0
 43 44  1  0  0  0  0
 43 46  1  0  0  0  0
 43 45  1  0  0  0  0
 36 38  1  0  0  0  0
 35 42  1  0  0  0  0
 29 34  1  0  0  0  0
  1  7  1  0  0  0  0
  1 25  1  0  0  0  0
  1 26  1  0  0  0  0
  1 17  1  0  0  0  0
  1 22  1  0  0  0  0
  1 23  1  0  0  0  0
  1 28  1  0  0  0  0
M  END
$$$$
