compound_86
  GFN2-xTB geometry (ORCA XTB2, DDCOSMO(water))

 66 77  0  0  0  0  0  0  0  0999 V2000
   -1.2304   -1.0789    0.1333 Ru  0  0  0  0  0  0  0  0  0  0  0  0
    0.2724   -0.3667   -1.5104 C   0  0  0  0  0  0  0  0  0  0  0  0
   -0.9452    0.3372   -1.6243 C   0  0  0  0  0  0  0  0  0  0  0  0
   -1.4732    1.0697   -0.5348 C   0  0  0  0  0  0  0  0  0  0  0  0
   -0.8041    1.0918    0.7036 C   0  0  0  0  0  0  0  0  0  0  0  0
    0.4115    0.3636    0.8313 C   0  0  0  0  0  0  0  0  0  0  0  0
    0.9372   -0.3378   -0.2556 C   0  0  0  0  0  0  0  0  0  0  0  0
   -1.4414    0.3987   -2.5847 H   0  0  0  0  0  0  0  0  0  0  0  0
   -6.1914   -2.5504   -0.9832 C   0  0  0  0  0  0  0  0  0  0  0  0
   -2.3514    1.6893   -0.6775 H   0  0  0  0  0  0  0  0  0  0  0  0
    0.9823    0.4321    1.7507 H   0  0  0  0  0  0  0  0  0  0  0  0
   -3.1203   -2.0058   -0.8338 P   0  0  0  0  0  0  0  0  0  0  0  0
   -1.0429    2.9737    1.6470 H   0  0  0  0  0  0  0  0  0  0  0  0
    0.1920   -5.8626    1.7749 C   0  0  0  0  0  0  0  0  0  0  0  0
   -0.5563   -4.7685    2.2180 C   0  0  0  0  0  0  0  0  0  0  0  0
   -0.9979   -5.1464    3.5366 C   0  0  0  0  0  0  0  0  0  0  0  0
   -0.5557   -6.3509    3.8503 N   0  0  0  0  0  0  0  0  0  0  0  0
    0.1554   -6.7481    2.7635 N   0  0  0  0  0  0  0  0  0  0  0  0
   -1.7636   -4.3221    4.2964 N   0  0  0  0  0  0  0  0  0  0  0  0
   -2.0735   -3.1916    3.7860 C   0  0  0  0  0  0  0  0  0  0  0  0
    1.9935   -0.6876   -2.6886 H   0  0  0  0  0  0  0  0  0  0  0  0
   -1.7034   -2.7477    2.5428 N   0  0  0  0  0  0  0  0  0  0  0  0
   -0.9192   -3.5080    1.6964 C   0  0  0  0  0  0  0  0  0  0  0  0
    0.9482   -1.1085   -4.8293 H   0  0  0  0  0  0  0  0  0  0  0  0
   -0.6180   -2.9944    0.5405 N   0  0  0  0  0  0  0  0  0  0  0  0
   -1.6319   -0.7577    2.7470 H   0  0  0  0  0  0  0  0  0  0  0  0
    0.7865   -8.0362    2.7659 C   0  0  0  0  0  0  0  0  0  0  0  0
   -4.8741   -0.3600   -0.3303 H   0  0  0  0  0  0  0  0  0  0  0  0
    0.0401   -8.8187    2.9044 H   0  0  0  0  0  0  0  0  0  0  0  0
    1.5035   -8.1010    3.5850 H   0  0  0  0  0  0  0  0  0  0  0  0
   -2.0446   -1.4488    2.1013 N   0  0  0  0  0  0  0  0  0  0  0  0
    1.2969   -8.1747    1.8161 H   0  0  0  0  0  0  0  0  0  0  0  0
   -0.0506   -3.5934   -0.0524 H   0  0  0  0  0  0  0  0  0  0  0  0
   -2.5893   -2.1732   -3.2317 H   0  0  0  0  0  0  0  0  0  0  0  0
   -4.5153   -0.8391   -1.2458 C   0  0  0  0  0  0  0  0  0  0  0  0
   -2.3652   -3.7340   -2.3999 H   0  0  0  0  0  0  0  0  0  0  0  0
   -4.5040   -2.9190    1.0003 H   0  0  0  0  0  0  0  0  0  0  0  0
   -3.5318   -4.1914    0.2193 H   0  0  0  0  0  0  0  0  0  0  0  0
   -6.1366   -2.5423   -3.6096 H   0  0  0  0  0  0  0  0  0  0  0  0
   -4.7680   -1.4204   -3.7720 H   0  0  0  0  0  0  0  0  0  0  0  0
   -6.4505   -2.0902   -0.0283 H   0  0  0  0  0  0  0  0  0  0  0  0
   -7.1038   -2.9306   -1.4507 H   0  0  0  0  0  0  0  0  0  0  0  0
   -4.9184   -4.2548   -2.0343 C   0  0  0  0  0  0  0  0  0  0  0  0
   -4.2188   -5.0765   -1.8688 H   0  0  0  0  0  0  0  0  0  0  0  0
   -5.8201   -4.6506   -2.5105 H   0  0  0  0  0  0  0  0  0  0  0  0
   -3.0658   -1.3178    2.1783 H   0  0  0  0  0  0  0  0  0  0  0  0
   -3.0110   -2.8552   -2.4880 C   0  0  0  0  0  0  0  0  0  0  0  0
   -4.3172   -3.2767   -2.9253 N   0  0  0  0  0  0  0  0  0  0  0  0
   -4.1605   -0.0700   -1.9368 H   0  0  0  0  0  0  0  0  0  0  0  0
   -5.2883   -3.6669   -0.7590 N   0  0  0  0  0  0  0  0  0  0  0  0
   -4.1436   -3.3008    0.0400 C   0  0  0  0  0  0  0  0  0  0  0  0
   -5.2323   -2.1658   -3.1236 C   0  0  0  0  0  0  0  0  0  0  0  0
   -5.6019   -1.5546   -1.8602 N   0  0  0  0  0  0  0  0  0  0  0  0
    1.9063   -0.8149   -0.1624 H   0  0  0  0  0  0  0  0  0  0  0  0
   -1.3187    1.9333    1.8286 C   0  0  0  0  0  0  0  0  0  0  0  0
   -0.8843    1.6460    2.7835 H   0  0  0  0  0  0  0  0  0  0  0  0
   -2.4044    1.8937    1.8887 H   0  0  0  0  0  0  0  0  0  0  0  0
    0.9532   -1.0398   -2.6828 C   0  0  0  0  0  0  0  0  0  0  0  0
    0.3328   -0.6912   -4.0349 C   0  0  0  0  0  0  0  0  0  0  0  0
    0.9643   -2.5609   -2.4879 C   0  0  0  0  0  0  0  0  0  0  0  0
    1.4240   -3.0395   -3.3495 H   0  0  0  0  0  0  0  0  0  0  0  0
   -0.0552   -2.9263   -2.3903 H   0  0  0  0  0  0  0  0  0  0  0  0
    1.5419   -2.8386   -1.6098 H   0  0  0  0  0  0  0  0  0  0  0  0
    0.2905    0.3854   -4.1872 H   0  0  0  0  0  0  0  0  0  0  0  0
   -0.6622   -1.1149   -4.1337 H   0  0  0  0  0  0  0  0  0  0  0  0
   -2.6840   -2.5235    4.3769 H   0  0  0  0  0  0  0  0  0  0  0  0
 15 16  1  0  0  0  0
 23 25  2  0  0  0  0
 14 18  1  0  0  0  0
 17 18  1  0  0  0  0
  5 55  1  0  0  0  0
 16 19  1  0  0  0  0
  6  7  4  0  0  0  0
 14 15  2  0  0  0  0
  2 58  1  0  0  0  0
  4  5  4  0  0  0  0
 20 22  1  0  0  0  0
  2  3  4  0  0  0  0
 15 23  1  0  0  0  0
  3  4  4  0  0  0  0
 58 59  1  0  0  0  0
 22 23  1  0  0  0  0
  2  7  4  0  0  0  0
 58 60  1  0  0  0  0
 12 47  1  0  0  0  0
  5  6  4  0  0  0  0
 12 35  1  0  0  0  0
 12 51  1  0  0  0  0
 22 31  1  0  0  0  0
 20 66  1  0  0  0  0
  3  8  1  0  0  0  0
  7 54  1  0  0  0  0
  4 10  1  0  0  0  0
  6 11  1  0  0  0  0
 59 65  1  0  0  0  0
 60 63  1  0  0  0  0
 27 32  1  0  0  0  0
 25 33  1  0  0  0  0
 60 62  1  0  0  0  0
 60 61  1  0  0  0  0
 55 56  1  0  0  0  0
 55 57  1  0  0  0  0
 24 59  1  0  0  0  0
 59 64  1  0  0  0  0
 27 29  1  0  0  0  0
 27 30  1  0  0  0  0
  9 41  1  0  0  0  0
 13 55  1  0  0  0  0
 40 52  1  0  0  0  0
 43 44  1  0  0  0  0
 35 49  1  0  0  0  0
  9 42  1  0  0  0  0
 39 52  1  0  0  0  0
 34 47  1  0  0  0  0
 43 45  1  0  0  0  0
 28 35  1  0  0  0  0
 36 47  1  0  0  0  0
 37 51  1  0  0  0  0
 38 51  1  0  0  0  0
 21 58  1  0  0  0  0
 26 31  1  0  0  0  0
 18 27  1  0  0  0  0
 31 46  1  0  0  0  0
 35 53  1  0  0  0  0
 47 48  1  0  0  0  0
 50 51  1  0  0  0  0
 52 53  1  0  0  0  0
  9 53  1  0  0  0  0
 43 50  1  0  0  0  0
 48 52  1  0  0  0  0
 43 48  1  0  0  0  0
  9 50  1  0  0  0  0
 19 20  2  0  0  0  0
 16 17  2  0  0  0  0
  1  2  1  0  0  0  0
  1  3  1  0  0  0  0
  1  4  1  0  0  0  0
  1  5  1  0  0  0  0
  1  6  1  0  0  0  0
  1  7  1  0  0  0  0
  1 12  1  0  0  0  0
  1 25  1  0  0  0  0
  1 31  1  0  0  0  0
M  END
$$$$
