compound_82
  GFN2-xTB geometry (ORCA XTB2, DDCOSMO(water))

 67 78  0  0  0  0  0  0  0  0999 V2000
   -1.2368   -1.0389    0.2241 Ru  0  0  0  0  0  0  0  0  0  0  0  0
    0.0895   -0.1007   -1.4444 C   0  0  0  0  0  0  0  0  0  0  0  0
   -1.1224    0.6203   -1.3300 C   0  0  0  0  0  0  0  0  0  0  0  0
   -1.5175    1.2032   -0.1053 C   0  0  0  0  0  0  0  0  0  0  0  0
   -0.7091    1.0721    1.0415 C   0  0  0  0  0  0  0  0  0  0  0  0
    0.4810    0.3081    0.9458 C   0  0  0  0  0  0  0  0  0  0  0  0
    0.8752   -0.2535   -0.2759 C   0  0  0  0  0  0  0  0  0  0  0  0
   -1.7096    0.8205   -2.2170 H   0  0  0  0  0  0  0  0  0  0  0  0
   -5.9574   -1.9923   -2.0377 C   0  0  0  0  0  0  0  0  0  0  0  0
   -2.3909    1.8448   -0.0704 H   0  0  0  0  0  0  0  0  0  0  0  0
    1.1444    0.2459    1.8010 H   0  0  0  0  0  0  0  0  0  0  0  0
   -3.0962   -2.0198   -0.7687 P   0  0  0  0  0  0  0  0  0  0  0  0
   -0.7683    2.8294    2.2196 H   0  0  0  0  0  0  0  0  0  0  0  0
    0.3690   -5.8851    1.4272 C   0  0  0  0  0  0  0  0  0  0  0  0
   -0.4269   -4.8612    1.9853 C   0  0  0  0  0  0  0  0  0  0  0  0
   -0.8733   -5.3879    3.2286 C   0  0  0  0  0  0  0  0  0  0  0  0
   -0.4124   -6.6029    3.4283 N   0  0  0  0  0  0  0  0  0  0  0  0
    0.3377   -6.8681    2.3121 N   0  0  0  0  0  0  0  0  0  0  0  0
   -1.6904   -4.6548    4.0515 N   0  0  0  0  0  0  0  0  0  0  0  0
   -2.0748   -3.3962    3.7301 C   0  0  0  0  0  0  0  0  0  0  0  0
   -2.7745   -2.6888    4.4341 O   0  0  0  0  0  0  0  0  0  0  0  0
   -1.6398   -2.9096    2.4935 N   0  0  0  0  0  0  0  0  0  0  0  0
   -0.8171   -3.5649    1.5930 C   0  0  0  0  0  0  0  0  0  0  0  0
   -1.9902   -5.0373    4.9378 H   0  0  0  0  0  0  0  0  0  0  0  0
   -0.5227   -2.9337    0.4998 N   0  0  0  0  0  0  0  0  0  0  0  0
   -1.5061   -0.9449    2.8600 H   0  0  0  0  0  0  0  0  0  0  0  0
    0.9974   -8.1364    2.2061 C   0  0  0  0  0  0  0  0  0  0  0  0
   -3.9043   -0.3878   -2.4155 H   0  0  0  0  0  0  0  0  0  0  0  0
    0.2693   -8.9445    2.2808 H   0  0  0  0  0  0  0  0  0  0  0  0
    1.7219   -8.2540    3.0131 H   0  0  0  0  0  0  0  0  0  0  0  0
   -1.9735   -1.5679    2.1815 N   0  0  0  0  0  0  0  0  0  0  0  0
    1.5058   -8.1833    1.2466 H   0  0  0  0  0  0  0  0  0  0  0  0
    0.0579   -3.4628   -0.1466 H   0  0  0  0  0  0  0  0  0  0  0  0
   -2.2680   -4.1081   -1.7723 H   0  0  0  0  0  0  0  0  0  0  0  0
   -3.6475   -1.4500   -2.4557 C   0  0  0  0  0  0  0  0  0  0  0  0
   -2.9918   -4.4099   -0.1765 H   0  0  0  0  0  0  0  0  0  0  0  0
   -5.0647   -0.9027    0.1998 H   0  0  0  0  0  0  0  0  0  0  0  0
   -4.7275   -2.4421    1.0387 H   0  0  0  0  0  0  0  0  0  0  0  0
   -5.3941   -4.0790   -3.5284 H   0  0  0  0  0  0  0  0  0  0  0  0
   -3.6501   -3.7577   -3.6576 H   0  0  0  0  0  0  0  0  0  0  0  0
   -6.1411   -0.9242   -1.9084 H   0  0  0  0  0  0  0  0  0  0  0  0
   -6.8303   -2.4456   -2.5152 H   0  0  0  0  0  0  0  0  0  0  0  0
   -5.5000   -4.0314   -0.9049 C   0  0  0  0  0  0  0  0  0  0  0  0
   -5.3389   -4.4942    0.0705 H   0  0  0  0  0  0  0  0  0  0  0  0
   -6.3679   -4.4968   -1.3794 H   0  0  0  0  0  0  0  0  0  0  0  0
   -2.9793   -1.4366    2.3709 H   0  0  0  0  0  0  0  0  0  0  0  0
   -3.1053   -3.8583   -1.1148 C   0  0  0  0  0  0  0  0  0  0  0  0
   -4.3368   -4.2421   -1.7457 N   0  0  0  0  0  0  0  0  0  0  0  0
   -2.8399   -1.5995   -3.1773 H   0  0  0  0  0  0  0  0  0  0  0  0
   -5.7632   -2.6134   -0.7393 N   0  0  0  0  0  0  0  0  0  0  0  0
   -4.7742   -1.9486    0.0629 C   0  0  0  0  0  0  0  0  0  0  0  0
   -4.5363   -3.6107   -3.0384 C   0  0  0  0  0  0  0  0  0  0  0  0
   -4.8018   -2.1904   -2.8934 N   0  0  0  0  0  0  0  0  0  0  0  0
    1.8334   -0.7566   -0.3443 H   0  0  0  0  0  0  0  0  0  0  0  0
   -1.0687    1.7835    2.3066 C   0  0  0  0  0  0  0  0  0  0  0  0
   -0.5525    1.3696    3.1704 H   0  0  0  0  0  0  0  0  0  0  0  0
   -2.1427    1.7703    2.4819 H   0  0  0  0  0  0  0  0  0  0  0  0
    0.5974   -0.6479   -2.7601 C   0  0  0  0  0  0  0  0  0  0  0  0
   -0.0544    0.0033   -3.9802 C   0  0  0  0  0  0  0  0  0  0  0  0
    0.3981   -2.1695   -2.7914 C   0  0  0  0  0  0  0  0  0  0  0  0
    0.6335   -2.5522   -3.7815 H   0  0  0  0  0  0  0  0  0  0  0  0
   -0.6367   -2.4116   -2.5520 H   0  0  0  0  0  0  0  0  0  0  0  0
    1.0597   -2.6573   -2.0807 H   0  0  0  0  0  0  0  0  0  0  0  0
    0.0157    1.0882   -3.9325 H   0  0  0  0  0  0  0  0  0  0  0  0
   -1.0954   -0.2863   -4.0823 H   0  0  0  0  0  0  0  0  0  0  0  0
    0.4677   -0.3175   -4.8794 H   0  0  0  0  0  0  0  0  0  0  0  0
    1.6738   -0.4400   -2.8044 H   0  0  0  0  0  0  0  0  0  0  0  0
 15 16  1  0  0  0  0
 23 25  2  0  0  0  0
 14 18  1  0  0  0  0
  5 55  1  0  0  0  0
 19 20  1  0  0  0  0
 17 18  1  0  0  0  0
  6  7  4  0  0  0  0
  2 58  1  0  0  0  0
 16 19  1  0  0  0  0
  4  5  4  0  0  0  0
 15 23  1  0  0  0  0
 14 15  2  0  0  0  0
  3  4  4  0  0  0  0
  2  3  4  0  0  0  0
  2  7  4  0  0  0  0
 58 59  1  0  0  0  0
  5  6  4  0  0  0  0
 22 23  1  0  0  0  0
 58 60  1  0  0  0  0
 12 35  1  0  0  0  0
 12 47  1  0  0  0  0
 12 51  1  0  0  0  0
 20 22  1  0  0  0  0
 19 24  1  0  0  0  0
  3  8  1  0  0  0  0
 22 31  1  0  0  0  0
  6 11  1  0  0  0  0
  4 10  1  0  0  0  0
  7 54  1  0  0  0  0
 59 65  1  0  0  0  0
 60 63  1  0  0  0  0
 27 32  1  0  0  0  0
 60 61  1  0  0  0  0
 59 66  1  0  0  0  0
 55 56  1  0  0  0  0
 59 64  1  0  0  0  0
 55 57  1  0  0  0  0
 25 33  1  0  0  0  0
 60 62  1  0  0  0  0
 27 29  1  0  0  0  0
 27 30  1  0  0  0  0
 40 52  1  0  0  0  0
  9 41  1  0  0  0  0
 43 44  1  0  0  0  0
 13 55  1  0  0  0  0
 43 45  1  0  0  0  0
 39 52  1  0  0  0  0
 35 49  1  0  0  0  0
  9 42  1  0  0  0  0
 34 47  1  0  0  0  0
 28 35  1  0  0  0  0
 37 51  1  0  0  0  0
 36 47  1  0  0  0  0
 38 51  1  0  0  0  0
 58 67  1  0  0  0  0
 18 27  1  0  0  0  0
 31 46  1  0  0  0  0
 26 31  1  0  0  0  0
 47 48  1  0  0  0  0
 50 51  1  0  0  0  0
 35 53  1  0  0  0  0
 43 48  1  0  0  0  0
  9 53  1  0  0  0  0
 43 50  1  0  0  0  0
 52 53  1  0  0  0  0
  9 50  1  0  0  0  0
 48 52  1  0  0  0  0
 20 21  2  0  0  0  0
 16 17  2  0  0  0  0
  1  2  1  0  0  0  0
  1  3  1  0  0  0  0
  1  4  1  0  0  0  0
  1  5  1  0  0  0  0
  1  6  1  0  0  0  0
  1  7  1  0  0  0  0
  1 12  1  0  0  0  0
  1 25  1  0  0  0  0
  1 31  1  0  0  0  0
M  END
$$$$
