compound_57
  GFN2-xTB geometry (ORCA XTB2, DDCOSMO(water))

 34 42  0  0  0  0  0  0  0  0999 V2000
   -0.6382   -3.0788    1.1279 Ru  0  0  0  0  0  0  0  0  0  0  0  0
    0.9313   -3.8688   -1.2046 C   0  0  0  0  0  0  0  0  0  0  0  0
    1.5089   -4.7309   -2.1359 C   0  0  0  0  0  0  0  0  0  0  0  0
    1.3658   -6.0953   -1.9853 C   0  0  0  0  0  0  0  0  0  0  0  0
    0.6329   -6.5745   -0.9062 C   0  0  0  0  0  0  0  0  0  0  0  0
    0.0872   -5.6691   -0.0185 C   0  0  0  0  0  0  0  0  0  0  0  0
    0.2363   -4.3512   -0.1485 N   0  0  0  0  0  0  0  0  0  0  0  0
    2.0565   -4.3190   -2.9663 H   0  0  0  0  0  0  0  0  0  0  0  0
    1.8072   -6.7755   -2.6953 H   0  0  0  0  0  0  0  0  0  0  0  0
    0.4845   -7.6300   -0.7532 H   0  0  0  0  0  0  0  0  0  0  0  0
   -0.5022   -6.0070    0.8251 H   0  0  0  0  0  0  0  0  0  0  0  0
    0.9520   -2.4168   -1.2444 C   0  0  0  0  0  0  0  0  0  0  0  0
    1.5740   -1.6383   -2.2203 C   0  0  0  0  0  0  0  0  0  0  0  0
    1.4600   -0.2642   -2.1676 C   0  0  0  0  0  0  0  0  0  0  0  0
    0.7157    0.3321   -1.1599 C   0  0  0  0  0  0  0  0  0  0  0  0
    0.0975   -0.4419   -0.1897 C   0  0  0  0  0  0  0  0  0  0  0  0
    0.2178   -1.8221   -0.2029 C   0  0  0  0  0  0  0  0  0  0  0  0
    2.1331   -2.1049   -3.0156 H   0  0  0  0  0  0  0  0  0  0  0  0
    1.9367    0.3477   -2.9177 H   0  0  0  0  0  0  0  0  0  0  0  0
    0.6112    1.4066   -1.1309 H   0  0  0  0  0  0  0  0  0  0  0  0
   -0.4965    0.0463    0.5717 H   0  0  0  0  0  0  0  0  0  0  0  0
   -2.5772   -3.1328   -0.3606 Cl  0  0  0  0  0  0  0  0  0  0  0  0
   -0.7099   -1.6282    2.9183 C   0  0  0  0  0  0  0  0  0  0  0  0
   -1.8947   -2.3678    2.9716 C   0  0  0  0  0  0  0  0  0  0  0  0
   -1.8605   -3.7838    3.1362 C   0  0  0  0  0  0  0  0  0  0  0  0
   -0.6468   -4.4500    3.1349 C   0  0  0  0  0  0  0  0  0  0  0  0
    0.5522   -3.7267    2.8759 C   0  0  0  0  0  0  0  0  0  0  0  0
    0.5326   -2.3092    2.8221 C   0  0  0  0  0  0  0  0  0  0  0  0
   -2.8499   -1.8558    3.0377 H   0  0  0  0  0  0  0  0  0  0  0  0
   -0.7373   -0.5473    2.9761 H   0  0  0  0  0  0  0  0  0  0  0  0
   -2.7857   -4.3165    3.3169 H   0  0  0  0  0  0  0  0  0  0  0  0
    1.4608   -1.7482    2.8234 H   0  0  0  0  0  0  0  0  0  0  0  0
   -0.6036   -5.5120    3.3358 H   0  0  0  0  0  0  0  0  0  0  0  0
    1.5050   -4.2463    2.9056 H   0  0  0  0  0  0  0  0  0  0  0  0
  2 12  1  0  0  0  0
 13 14  4  0  0  0  0
  3  4  4  0  0  0  0
  5  6  4  0  0  0  0
 25 26  4  0  0  0  0
 16 17  4  0  0  0  0
 15 16  4  0  0  0  0
 14 15  4  0  0  0  0
  4  5  4  0  0  0  0
  2  3  4  0  0  0  0
 12 13  4  0  0  0  0
  6  7  4  0  0  0  0
 23 24  4  0  0  0  0
 12 17  4  0  0  0  0
  2  7  4  0  0  0  0
 27 28  4  0  0  0  0
 23 28  4  0  0  0  0
 26 27  4  0  0  0  0
 24 25  4  0  0  0  0
  3  8  1  0  0  0  0
  5 10  1  0  0  0  0
  4  9  1  0  0  0  0
 13 18  1  0  0  0  0
 14 19  1  0  0  0  0
 15 20  1  0  0  0  0
 26 33  1  0  0  0  0
 16 21  1  0  0  0  0
 25 31  1  0  0  0  0
 23 30  1  0  0  0  0
  6 11  1  0  0  0  0
 28 32  1  0  0  0  0
 27 34  1  0  0  0  0
 24 29  1  0  0  0  0
  1  7  1  0  0  0  0
  1 25  1  0  0  0  0
  1 26  1  0  0  0  0
  1 27  1  0  0  0  0
  1 17  1  0  0  0  0
  1 22  1  0  0  0  0
  1 23  1  0  0  0  0
  1 24  1  0  0  0  0
  1 28  1  0  0  0  0
M  END
$$$$
