compound_112
  GFN2-xTB geometry (ORCA XTB2, DDCOSMO(water))

 70 78  0  0  0  0  0  0  0  0999 V2000
    4.1484    2.2605   -0.5439 C   0  0  0  0  0  0  0  0  0  0  0  0
    3.1098    2.1924   -1.5115 C   0  0  0  0  0  0  0  0  0  0  0  0
    2.2344    1.0895   -1.5581 C   0  0  0  0  0  0  0  0  0  0  0  0
    2.5315   -0.0424   -0.7583 C   0  0  0  0  0  0  0  0  0  0  0  0
    3.6685   -0.0341    0.0852 C   0  0  0  0  0  0  0  0  0  0  0  0
    4.4162    1.1670    0.2823 C   0  0  0  0  0  0  0  0  0  0  0  0
    2.9027    3.0709   -2.1150 H   0  0  0  0  0  0  0  0  0  0  0  0
    1.3295    1.1325   -2.1530 H   0  0  0  0  0  0  0  0  0  0  0  0
    1.8473   -0.8852   -0.7297 H   0  0  0  0  0  0  0  0  0  0  0  0
    3.8380   -0.8789    0.7449 H   0  0  0  0  0  0  0  0  0  0  0  0
    6.5101   -0.6847   -2.0175 Cl  0  0  0  0  0  0  0  0  0  0  0  0
    4.6986    3.1851   -0.4220 H   0  0  0  0  0  0  0  0  0  0  0  0
    4.3112    0.2841   -2.0942 Ru  0  0  0  0  0  0  0  0  0  0  0  0
    5.0411    1.3703   -4.1566 Cl  0  0  0  0  0  0  0  0  0  0  0  0
    5.7090   -2.3181   -4.4741 H   0  0  0  0  0  0  0  0  0  0  0  0
    3.7151   -1.5938   -3.2524 P   0  0  0  0  0  0  0  0  0  0  0  0
    3.7390   -3.1829   -2.2981 C   0  0  0  0  0  0  0  0  0  0  0  0
    3.3034   -4.2769   -3.1349 N   0  0  0  0  0  0  0  0  0  0  0  0
    4.1765   -4.4824   -4.2739 C   0  0  0  0  0  0  0  0  0  0  0  0
    4.0993   -3.4086   -5.2602 N   0  0  0  0  0  0  0  0  0  0  0  0
    4.6537   -2.1772   -4.7509 C   0  0  0  0  0  0  0  0  0  0  0  0
    2.0037   -1.7110   -3.9580 C   0  0  0  0  0  0  0  0  0  0  0  0
    1.8072   -3.0051   -4.5671 N   0  0  0  0  0  0  0  0  0  0  0  0
    2.7106   -3.2411   -5.6763 C   0  0  0  0  0  0  0  0  0  0  0  0
    1.9387   -4.0893   -3.6042 C   0  0  0  0  0  0  0  0  0  0  0  0
    3.0691   -3.0918   -1.4370 H   0  0  0  0  0  0  0  0  0  0  0  0
    4.7627   -3.3536   -1.9413 H   0  0  0  0  0  0  0  0  0  0  0  0
    1.6225   -5.0125   -4.0943 H   0  0  0  0  0  0  0  0  0  0  0  0
    1.2917   -3.8894   -2.7500 H   0  0  0  0  0  0  0  0  0  0  0  0
    3.8831   -5.4082   -4.7739 H   0  0  0  0  0  0  0  0  0  0  0  0
    5.2107   -4.5668   -3.9309 H   0  0  0  0  0  0  0  0  0  0  0  0
    2.4063   -4.1603   -6.1820 H   0  0  0  0  0  0  0  0  0  0  0  0
    2.6555   -2.4059   -6.3791 H   0  0  0  0  0  0  0  0  0  0  0  0
    1.2734   -1.5727   -3.1549 H   0  0  0  0  0  0  0  0  0  0  0  0
    1.8767   -0.9179   -4.7046 H   0  0  0  0  0  0  0  0  0  0  0  0
    4.6203   -1.3929   -5.5215 H   0  0  0  0  0  0  0  0  0  0  0  0
    5.3768    1.2780    1.4433 C   0  0  0  0  0  0  0  0  0  0  0  0
    6.4151    0.2708    1.4277 N   0  0  0  0  0  0  0  0  0  0  0  0
    7.7168    0.4254    1.1828 C   0  0  0  0  0  0  0  0  0  0  0  0
    8.4721   -0.5356    1.0857 O   0  0  0  0  0  0  0  0  0  0  0  0
    6.1089   -0.6955    1.4459 H   0  0  0  0  0  0  0  0  0  0  0  0
    4.7908    1.1400    2.3603 H   0  0  0  0  0  0  0  0  0  0  0  0
    5.8231    2.2705    1.4470 H   0  0  0  0  0  0  0  0  0  0  0  0
    8.2559    1.8596    1.0825 C   0  0  0  0  0  0  0  0  0  0  0  0
    7.7696    2.5370   -0.0727 O   0  0  0  0  0  0  0  0  0  0  0  0
    8.2333    2.1734   -1.2781 C   0  0  0  0  0  0  0  0  0  0  0  0
    7.7405    2.8973   -2.3768 C   0  0  0  0  0  0  0  0  0  0  0  0
    8.0825    2.5481   -3.6695 C   0  0  0  0  0  0  0  0  0  0  0  0
    8.9264    1.4628   -3.9092 C   0  0  0  0  0  0  0  0  0  0  0  0
    9.4785    0.8028   -2.8149 C   0  0  0  0  0  0  0  0  0  0  0  0
    9.1475    1.1507   -1.5221 C   0  0  0  0  0  0  0  0  0  0  0  0
    6.6592    4.1980   -2.0970 Cl  0  0  0  0  0  0  0  0  0  0  0  0
    7.4845    3.4813   -5.0044 Cl  0  0  0  0  0  0  0  0  0  0  0  0
    7.9171    2.4613    1.9274 H   0  0  0  0  0  0  0  0  0  0  0  0
   10.1383   -0.0315   -2.9888 H   0  0  0  0  0  0  0  0  0  0  0  0
    9.5540    0.5710   -0.7101 H   0  0  0  0  0  0  0  0  0  0  0  0
    9.3482    1.8180    1.0826 H   0  0  0  0  0  0  0  0  0  0  0  0
    9.0558    0.8760   -5.2694 C   0  0  0  0  0  0  0  0  0  0  0  0
    8.0341    0.6327   -5.9110 O   0  0  0  0  0  0  0  0  0  0  0  0
   10.4023    0.5625   -5.7715 C   0  0  0  0  0  0  0  0  0  0  0  0
   10.4354   -0.4068   -6.9208 C   0  0  0  0  0  0  0  0  0  0  0  0
   11.7984   -0.5873   -7.5714 C   0  0  0  0  0  0  0  0  0  0  0  0
   11.4651    1.1849   -5.2578 C   0  0  0  0  0  0  0  0  0  0  0  0
    9.7028   -0.0599   -7.6570 H   0  0  0  0  0  0  0  0  0  0  0  0
   10.0629   -1.3686   -6.5539 H   0  0  0  0  0  0  0  0  0  0  0  0
   11.7113   -1.2817   -8.4022 H   0  0  0  0  0  0  0  0  0  0  0  0
   12.5113   -0.9907   -6.8583 H   0  0  0  0  0  0  0  0  0  0  0  0
   12.1675    0.3614   -7.9508 H   0  0  0  0  0  0  0  0  0  0  0  0
   11.3649    1.8957   -4.4566 H   0  0  0  0  0  0  0  0  0  0  0  0
   12.4543    1.0126   -5.6407 H   0  0  0  0  0  0  0  0  0  0  0  0
 45 46  1  0  0  0  0
 58 60  1  0  0  0  0
 38 39  1  0  0  0  0
 49 58  1  0  0  0  0
 50 51  4  0  0  0  0
 47 48  4  0  0  0  0
 47 52  1  0  0  0  0
 49 50  4  0  0  0  0
 46 51  4  0  0  0  0
 60 61  1  0  0  0  0
 48 49  4  0  0  0  0
  1  6  4  0  0  0  0
  6 37  1  0  0  0  0
 46 47  4  0  0  0  0
 48 53  1  0  0  0  0
  2  3  4  0  0  0  0
 61 62  1  0  0  0  0
 16 17  1  0  0  0  0
  4  5  4  0  0  0  0
 16 22  1  0  0  0  0
  3  4  4  0  0  0  0
  1  2  4  0  0  0  0
 16 21  1  0  0  0  0
 44 45  1  0  0  0  0
 39 44  1  0  0  0  0
  5  6  4  0  0  0  0
 63 70  1  0  0  0  0
 63 69  1  0  0  0  0
 51 56  1  0  0  0  0
 50 55  1  0  0  0  0
  1 12  1  0  0  0  0
  3  8  1  0  0  0  0
 38 41  1  0  0  0  0
  5 10  1  0  0  0  0
  2  7  1  0  0  0  0
  4  9  1  0  0  0  0
 62 67  1  0  0  0  0
 62 66  1  0  0  0  0
 62 68  1  0  0  0  0
 37 43  1  0  0  0  0
 25 29  1  0  0  0  0
 44 54  1  0  0  0  0
 25 28  1  0  0  0  0
 19 30  1  0  0  0  0
 24 32  1  0  0  0  0
 19 31  1  0  0  0  0
 24 33  1  0  0  0  0
 44 57  1  0  0  0  0
 22 34  1  0  0  0  0
 61 65  1  0  0  0  0
 17 26  1  0  0  0  0
 61 64  1  0  0  0  0
 22 35  1  0  0  0  0
 37 42  1  0  0  0  0
 17 27  1  0  0  0  0
 21 36  1  0  0  0  0
 15 21  1  0  0  0  0
 20 21  1  0  0  0  0
 22 23  1  0  0  0  0
 17 18  1  0  0  0  0
 37 38  1  0  0  0  0
 18 19  1  0  0  0  0
 23 24  1  0  0  0  0
 18 25  1  0  0  0  0
 23 25  1  0  0  0  0
 20 24  1  0  0  0  0
 19 20  1  0  0  0  0
 39 40  2  0  0  0  0
 58 59  2  0  0  0  0
 60 63  2  0  0  0  0
 13  2  1  0  0  0  0
 13  3  1  0  0  0  0
 13  4  1  0  0  0  0
 13 14  1  0  0  0  0
 13  1  1  0  0  0  0
 13  5  1  0  0  0  0
 13 11  1  0  0  0  0
 13 16  1  0  0  0  0
M  END
$$$$
