compound_14
  GFN2-xTB geometry (ORCA XTB2, DDCOSMO(water))

 55 62  0  0  0  0  0  0  0  0999 V2000
    5.3895   -2.7167    2.6060 H   0  0  0  0  0  0  0  0  0  0  0  0
   -0.7290   -0.6189   -0.8454 C   0  0  0  0  0  0  0  0  0  0  0  0
    0.1947   -1.3796   -0.1288 C   0  0  0  0  0  0  0  0  0  0  0  0
    1.5109   -1.7773   -0.6179 C   0  0  0  0  0  0  0  0  0  0  0  0
    4.8764   -2.0198    4.1508 H   0  0  0  0  0  0  0  0  0  0  0  0
    0.4796   -6.0614    2.9322 C   0  0  0  0  0  0  0  0  0  0  0  0
    4.6081   -0.1194    2.7678 H   0  0  0  0  0  0  0  0  0  0  0  0
    4.1129   -1.0097    2.3813 C   0  0  0  0  0  0  0  0  0  0  0  0
   -1.5518   -2.1199    2.5425 H   0  0  0  0  0  0  0  0  0  0  0  0
    6.6324   -4.8503   -1.8406 H   0  0  0  0  0  0  0  0  0  0  0  0
   -1.9846   -0.3894   -0.3186 C   0  0  0  0  0  0  0  0  0  0  0  0
   -2.3012   -0.9396    0.9163 C   0  0  0  0  0  0  0  0  0  0  0  0
   -1.3371   -1.6737    1.5776 C   0  0  0  0  0  0  0  0  0  0  0  0
   -0.1196   -1.8832    1.0824 N   0  0  0  0  0  0  0  0  0  0  0  0
   -2.7063    0.1987   -0.8617 H   0  0  0  0  0  0  0  0  0  0  0  0
   -3.2713   -0.8035    1.3627 H   0  0  0  0  0  0  0  0  0  0  0  0
    3.3298   -2.5702    5.4819 H   0  0  0  0  0  0  0  0  0  0  0  0
    3.4062   -4.3458    5.5374 H   0  0  0  0  0  0  0  0  0  0  0  0
    2.2147   -2.6833    0.2032 C   0  0  0  0  0  0  0  0  0  0  0  0
    0.3290   -5.0674    1.4596 Se  0  0  0  0  0  0  0  0  0  0  0  0
    3.3858   -3.2823   -0.3503 C   0  0  0  0  0  0  0  0  0  0  0  0
    3.9129   -2.8297   -1.5937 C   0  0  0  0  0  0  0  0  0  0  0  0
    3.2285   -1.8263   -2.3160 C   0  0  0  0  0  0  0  0  0  0  0  0
    2.0175   -1.3484   -1.8425 C   0  0  0  0  0  0  0  0  0  0  0  0
    2.0197    0.8080    4.2618 H   0  0  0  0  0  0  0  0  0  0  0  0
    2.9182   -0.6417    4.7510 H   0  0  0  0  0  0  0  0  0  0  0  0
   -0.0973   -0.2971    4.3311 H   0  0  0  0  0  0  0  0  0  0  0  0
    0.7289   -0.8281    5.8144 H   0  0  0  0  0  0  0  0  0  0  0  0
    1.0459   -4.5871    5.2435 H   0  0  0  0  0  0  0  0  0  0  0  0
    4.3180   -1.1043    1.3140 H   0  0  0  0  0  0  0  0  0  0  0  0
    1.4111   -2.7677    2.0639 Ru  0  0  0  0  0  0  0  0  0  0  0  0
    0.5653   -6.7157    3.8805 N   0  0  0  0  0  0  0  0  0  0  0  0
    1.1946   -3.2278    6.3837 H   0  0  0  0  0  0  0  0  0  0  0  0
    2.3159   -0.6581    2.4084 S   0  0  0  0  0  0  0  0  0  0  0  0
    2.0549   -0.2799    4.2031 C   0  0  0  0  0  0  0  0  0  0  0  0
    0.7553   -0.8500    4.7265 C   0  0  0  0  0  0  0  0  0  0  0  0
    0.3732   -2.5905    4.2386 S   0  0  0  0  0  0  0  0  0  0  0  0
    1.4201   -3.5676    5.3739 C   0  0  0  0  0  0  0  0  0  0  0  0
    2.9021   -3.4886    5.0915 C   0  0  0  0  0  0  0  0  0  0  0  0
    3.2979   -3.5967    3.2792 S   0  0  0  0  0  0  0  0  0  0  0  0
    4.5615   -2.2479    3.1359 C   0  0  0  0  0  0  0  0  0  0  0  0
    5.0982   -3.4032   -2.1019 C   0  0  0  0  0  0  0  0  0  0  0  0
    5.7294   -4.4324   -1.4216 C   0  0  0  0  0  0  0  0  0  0  0  0
    5.1798   -4.9275   -0.2455 C   0  0  0  0  0  0  0  0  0  0  0  0
    4.0356   -4.3652    0.2710 C   0  0  0  0  0  0  0  0  0  0  0  0
    3.5925   -4.7960    1.1588 H   0  0  0  0  0  0  0  0  0  0  0  0
    5.6462   -5.7592    0.2572 H   0  0  0  0  0  0  0  0  0  0  0  0
    5.6489   -2.9249   -3.3673 C   0  0  0  0  0  0  0  0  0  0  0  0
    4.9396   -1.9255   -3.9911 N   0  0  0  0  0  0  0  0  0  0  0  0
    3.7543   -1.3484   -3.5797 C   0  0  0  0  0  0  0  0  0  0  0  0
    3.2211   -0.4950   -4.2823 O   0  0  0  0  0  0  0  0  0  0  0  0
    6.6765   -3.3533   -3.8791 O   0  0  0  0  0  0  0  0  0  0  0  0
   -0.4583   -0.2201   -1.8082 H   0  0  0  0  0  0  0  0  0  0  0  0
    1.5000   -0.6190   -2.4473 H   0  0  0  0  0  0  0  0  0  0  0  0
    5.3120   -1.5976   -4.8770 H   0  0  0  0  0  0  0  0  0  0  0  0
 21 22  1  0  0  0  0
 23 50  1  0  0  0  0
  3  4  1  0  0  0  0
 42 48  1  0  0  0  0
 44 45  4  0  0  0  0
 12 13  4  0  0  0  0
  2 11  4  0  0  0  0
 23 24  4  0  0  0  0
 42 43  4  0  0  0  0
 11 12  4  0  0  0  0
 43 44  4  0  0  0  0
  4 24  4  0  0  0  0
 13 14  4  0  0  0  0
  2  3  4  0  0  0  0
 38 39  1  0  0  0  0
 35 36  1  0  0  0  0
  8 41  1  0  0  0  0
 21 45  4  0  0  0  0
  4 19  4  0  0  0  0
 22 42  4  0  0  0  0
 48 49  1  0  0  0  0
  3 14  4  0  0  0  0
 22 23  4  0  0  0  0
 49 50  1  0  0  0  0
 19 21  4  0  0  0  0
 12 16  1  0  0  0  0
  2 53  1  0  0  0  0
 11 15  1  0  0  0  0
 44 47  1  0  0  0  0
 10 43  1  0  0  0  0
 24 54  1  0  0  0  0
 37 38  1  0  0  0  0
 45 46  1  0  0  0  0
  8 34  1  0  0  0  0
  9 13  1  0  0  0  0
 26 35  1  0  0  0  0
 17 39  1  0  0  0  0
 49 55  1  0  0  0  0
  5 41  1  0  0  0  0
 28 36  1  0  0  0  0
 33 38  1  0  0  0  0
  1 41  1  0  0  0  0
  7  8  1  0  0  0  0
 18 39  1  0  0  0  0
 25 35  1  0  0  0  0
 27 36  1  0  0  0  0
  8 30  1  0  0  0  0
 36 37  1  0  0  0  0
 29 38  1  0  0  0  0
 34 35  1  0  0  0  0
 40 41  1  0  0  0  0
 39 40  1  0  0  0  0
  6 32  2  0  0  0  0
 48 52  2  0  0  0  0
 50 51  2  0  0  0  0
  6 20  2  0  0  0  0
 31 20  1  0  0  0  0
 31 40  1  0  0  0  0
 31 14  1  0  0  0  0
 31 19  1  0  0  0  0
 31 34  1  0  0  0  0
 31 37  1  0  0  0  0
M  END
$$$$
