compound_117
  GFN2-xTB geometry (ORCA XTB2, DDCOSMO(water))

 75 82  0  0  0  0  0  0  0  0999 V2000
   -5.1993   -4.0795   -0.5064 C   0  0  0  0  0  0  0  0  0  0  0  0
   -6.0943   -4.9707    0.0226 C   0  0  0  0  0  0  0  0  0  0  0  0
   -6.2868   -6.2446   -0.6011 C   0  0  0  0  0  0  0  0  0  0  0  0
   -5.6182   -6.5433   -1.7592 C   0  0  0  0  0  0  0  0  0  0  0  0
   -4.7364   -5.6119   -2.3409 C   0  0  0  0  0  0  0  0  0  0  0  0
   -4.4879   -4.3826   -1.6826 C   0  0  0  0  0  0  0  0  0  0  0  0
   -5.0370   -3.1288   -0.0328 H   0  0  0  0  0  0  0  0  0  0  0  0
  -11.7734   -3.3858   -1.2189 H   0  0  0  0  0  0  0  0  0  0  0  0
   -5.7681   -7.4728   -2.2819 H   0  0  0  0  0  0  0  0  0  0  0  0
  -12.0881   -2.2167   -0.0934 H   0  0  0  0  0  0  0  0  0  0  0  0
   -7.1791   -7.0462    0.0261 O   0  0  0  0  0  0  0  0  0  0  0  0
   -7.4164   -8.3389   -0.4951 C   0  0  0  0  0  0  0  0  0  0  0  0
   -7.8575   -8.2852   -1.4944 H   0  0  0  0  0  0  0  0  0  0  0  0
   -8.1192   -8.8020    0.1932 H   0  0  0  0  0  0  0  0  0  0  0  0
   -6.4947   -8.9236   -0.5352 H   0  0  0  0  0  0  0  0  0  0  0  0
   -6.8605   -4.7420    1.1107 O   0  0  0  0  0  0  0  0  0  0  0  0
   -6.9587   -3.4042    1.6083 C   0  0  0  0  0  0  0  0  0  0  0  0
   -8.3239   -3.2761    2.2704 C   0  0  0  0  0  0  0  0  0  0  0  0
   -6.1462   -3.2073    2.3139 H   0  0  0  0  0  0  0  0  0  0  0  0
   -8.4494   -2.2704    2.6740 H   0  0  0  0  0  0  0  0  0  0  0  0
   -8.3965   -4.0091    3.0805 H   0  0  0  0  0  0  0  0  0  0  0  0
   -6.9024   -2.7056    0.7659 H   0  0  0  0  0  0  0  0  0  0  0  0
   -9.3598   -3.5433    1.2727 N   0  0  0  0  0  0  0  0  0  0  0  0
   -9.1369   -4.4653    0.8730 H   0  0  0  0  0  0  0  0  0  0  0  0
   -2.3452   -0.4990    3.7129 Cl  0  0  0  0  0  0  0  0  0  0  0  0
  -10.7013   -3.6277    1.8623 C   0  0  0  0  0  0  0  0  0  0  0  0
  -11.6390   -4.0235    0.7323 C   0  0  0  0  0  0  0  0  0  0  0  0
  -11.4776   -3.0090   -0.3159 N   0  0  0  0  0  0  0  0  0  0  0  0
  -10.7289   -4.3607    2.6731 H   0  0  0  0  0  0  0  0  0  0  0  0
  -10.9622   -2.6380    2.2496 H   0  0  0  0  0  0  0  0  0  0  0  0
  -12.6746   -4.0760    1.0769 H   0  0  0  0  0  0  0  0  0  0  0  0
  -11.3437   -4.9998    0.3335 H   0  0  0  0  0  0  0  0  0  0  0  0
   -4.1790   -5.9048   -3.5435 N   0  0  0  0  0  0  0  0  0  0  0  0
   -3.4423   -4.9703   -4.0802 C   0  0  0  0  0  0  0  0  0  0  0  0
   -3.1177   -3.7915   -3.5586 N   0  0  0  0  0  0  0  0  0  0  0  0
   -3.5845   -3.5009   -2.3467 C   0  0  0  0  0  0  0  0  0  0  0  0
   -5.5142   -2.1684   -3.8841 H   0  0  0  0  0  0  0  0  0  0  0  0
   -3.0344   -5.1797   -5.0621 H   0  0  0  0  0  0  0  0  0  0  0  0
   -7.1331   -1.6404   -4.3083 H   0  0  0  0  0  0  0  0  0  0  0  0
   -3.2300   -2.2752   -1.8720 N   0  0  0  0  0  0  0  0  0  0  0  0
   -3.0246   -1.8808   -0.5544 C   0  0  0  0  0  0  0  0  0  0  0  0
   -2.6356   -2.7892    0.4310 C   0  0  0  0  0  0  0  0  0  0  0  0
   -2.4450   -2.3413    1.7213 C   0  0  0  0  0  0  0  0  0  0  0  0
   -2.6195   -1.0081    2.0690 C   0  0  0  0  0  0  0  0  0  0  0  0
   -2.9853   -0.1049    1.0812 C   0  0  0  0  0  0  0  0  0  0  0  0
   -3.1820   -0.5354   -0.2157 C   0  0  0  0  0  0  0  0  0  0  0  0
   -2.4751   -3.8312    0.2051 H   0  0  0  0  0  0  0  0  0  0  0  0
   -2.8366   -1.6676   -2.5808 H   0  0  0  0  0  0  0  0  0  0  0  0
   -2.0694   -3.2365    2.6667 F   0  0  0  0  0  0  0  0  0  0  0  0
   -3.1143    0.9320    1.3412 H   0  0  0  0  0  0  0  0  0  0  0  0
   -3.4639    0.1715   -0.9789 H   0  0  0  0  0  0  0  0  0  0  0  0
   -9.4901   -2.3281   -0.4654 Ru  0  0  0  0  0  0  0  0  0  0  0  0
   -7.7524   -0.8308   -1.5971 C   0  0  0  0  0  0  0  0  0  0  0  0
   -9.0090   -0.8247   -2.2739 C   0  0  0  0  0  0  0  0  0  0  0  0
  -10.1811   -0.4438   -1.6219 C   0  0  0  0  0  0  0  0  0  0  0  0
  -10.1877   -0.2122   -0.2151 C   0  0  0  0  0  0  0  0  0  0  0  0
   -8.9581   -0.3476    0.4766 C   0  0  0  0  0  0  0  0  0  0  0  0
   -7.7423   -0.5547   -0.2301 C   0  0  0  0  0  0  0  0  0  0  0  0
   -9.0290   -0.9860   -3.3449 H   0  0  0  0  0  0  0  0  0  0  0  0
  -11.0868   -0.2900   -2.1985 H   0  0  0  0  0  0  0  0  0  0  0  0
   -8.9551   -4.3682   -1.7130 Cl  0  0  0  0  0  0  0  0  0  0  0  0
   -8.9173   -0.0903    1.5295 H   0  0  0  0  0  0  0  0  0  0  0  0
   -6.7968   -0.4539    0.2885 H   0  0  0  0  0  0  0  0  0  0  0  0
  -11.3081    1.3692    0.6428 H   0  0  0  0  0  0  0  0  0  0  0  0
  -11.4088    0.2942    0.4900 C   0  0  0  0  0  0  0  0  0  0  0  0
  -11.5107   -0.1682    1.4690 H   0  0  0  0  0  0  0  0  0  0  0  0
  -12.3088    0.1284   -0.0958 H   0  0  0  0  0  0  0  0  0  0  0  0
   -6.4495   -0.9702   -2.3457 C   0  0  0  0  0  0  0  0  0  0  0  0
   -6.5098   -1.9863   -3.4865 C   0  0  0  0  0  0  0  0  0  0  0  0
   -6.0432    0.4104   -2.8775 C   0  0  0  0  0  0  0  0  0  0  0  0
   -5.0989    0.3350   -3.4091 H   0  0  0  0  0  0  0  0  0  0  0  0
   -5.9353    1.1165   -2.0587 H   0  0  0  0  0  0  0  0  0  0  0  0
   -6.7931    0.7909   -3.5683 H   0  0  0  0  0  0  0  0  0  0  0  0
   -5.6838   -1.3053   -1.6417 H   0  0  0  0  0  0  0  0  0  0  0  0
   -6.9020   -2.9465   -3.1424 H   0  0  0  0  0  0  0  0  0  0  0  0
  6 36  1  0  0  0  0
  2 16  1  0  0  0  0
  3 11  1  0  0  0  0
 33 34  2  0  0  0  0
  1  2  4  0  0  0  0
  3  4  4  0  0  0  0
 43 49  1  0  0  0  0
 42 43  4  0  0  0  0
 45 46  4  0  0  0  0
 44 45  4  0  0  0  0
 56 65  1  0  0  0  0
 43 44  4  0  0  0  0
 34 35  1  0  0  0  0
 35 36  2  0  0  0  0
  5 33  1  0  0  0  0
 54 55  4  0  0  0  0
 53 58  4  0  0  0  0
 41 42  4  0  0  0  0
 41 46  4  0  0  0  0
 36 40  1  0  0  0  0
 53 68  1  0  0  0  0
  1  6  4  0  0  0  0
  4  5  4  0  0  0  0
 26 27  1  0  0  0  0
 11 12  1  0  0  0  0
 17 18  1  0  0  0  0
 25 44  1  0  0  0  0
  5  6  4  0  0  0  0
 68 69  1  0  0  0  0
 56 57  4  0  0  0  0
 57 58  4  0  0  0  0
 68 70  1  0  0  0  0
 55 56  4  0  0  0  0
 53 54  4  0  0  0  0
 16 17  1  0  0  0  0
 40 41  1  0  0  0  0
  2  3  4  0  0  0  0
  1  7  1  0  0  0  0
 45 50  1  0  0  0  0
  4  9  1  0  0  0  0
 46 51  1  0  0  0  0
 42 47  1  0  0  0  0
 58 63  1  0  0  0  0
 54 59  1  0  0  0  0
 34 38  1  0  0  0  0
 40 48  1  0  0  0  0
 55 60  1  0  0  0  0
 57 62  1  0  0  0  0
 70 71  1  0  0  0  0
 70 72  1  0  0  0  0
 65 67  1  0  0  0  0
 12 14  1  0  0  0  0
 37 69  1  0  0  0  0
 65 66  1  0  0  0  0
 39 69  1  0  0  0  0
 70 73  1  0  0  0  0
 64 65  1  0  0  0  0
 18 20  1  0  0  0  0
 12 15  1  0  0  0  0
 27 31  1  0  0  0  0
 69 75  1  0  0  0  0
 68 74  1  0  0  0  0
 26 29  1  0  0  0  0
 12 13  1  0  0  0  0
  8 28  1  0  0  0  0
 17 19  1  0  0  0  0
 26 30  1  0  0  0  0
 18 21  1  0  0  0  0
 27 32  1  0  0  0  0
 17 22  1  0  0  0  0
 10 28  1  0  0  0  0
 23 24  1  0  0  0  0
 18 23  1  0  0  0  0
 27 28  1  0  0  0  0
 23 26  1  0  0  0  0
 52 28  1  0  0  0  0
 52 23  1  0  0  0  0
 52 61  1  0  0  0  0
 52 53  1  0  0  0  0
 52 54  1  0  0  0  0
 52 55  1  0  0  0  0
 52 56  1  0  0  0  0
M  END
$$$$
