compound_98
  GFN2-xTB geometry (ORCA XTB2, DDCOSMO(water))

 63 70  0  0  0  0  0  0  0  0999 V2000
    7.3567   -5.8643    0.9418 Ru  0  0  0  0  0  0  0  0  0  0  0  0
    9.2240   -4.5217    0.8522 C   0  0  0  0  0  0  0  0  0  0  0  0
    8.6410   -4.5531   -0.4274 C   0  0  0  0  0  0  0  0  0  0  0  0
    8.3898   -5.7893   -1.0756 C   0  0  0  0  0  0  0  0  0  0  0  0
    8.7322   -7.0104   -0.4603 C   0  0  0  0  0  0  0  0  0  0  0  0
    9.3982   -6.9660    0.8001 C   0  0  0  0  0  0  0  0  0  0  0  0
    9.6298   -5.7545    1.4436 C   0  0  0  0  0  0  0  0  0  0  0  0
    8.4331   -3.6224   -0.9440 H   0  0  0  0  0  0  0  0  0  0  0  0
    7.9964   -5.7910   -2.0848 H   0  0  0  0  0  0  0  0  0  0  0  0
   10.6076   -3.0322    1.4699 H   0  0  0  0  0  0  0  0  0  0  0  0
    9.7548   -7.8911    1.2409 H   0  0  0  0  0  0  0  0  0  0  0  0
   10.1670   -5.7336    2.3854 H   0  0  0  0  0  0  0  0  0  0  0  0
    9.5367   -3.2274    1.5350 C   0  0  0  0  0  0  0  0  0  0  0  0
    9.2694   -3.2744    2.5897 H   0  0  0  0  0  0  0  0  0  0  0  0
    9.0035   -2.4010    1.0732 H   0  0  0  0  0  0  0  0  0  0  0  0
    8.5400   -8.3266   -1.1756 C   0  0  0  0  0  0  0  0  0  0  0  0
    7.1268   -8.4613   -1.7467 C   0  0  0  0  0  0  0  0  0  0  0  0
    9.5933   -8.4565   -2.2819 C   0  0  0  0  0  0  0  0  0  0  0  0
    8.6931   -9.1348   -0.4512 H   0  0  0  0  0  0  0  0  0  0  0  0
    6.9762   -9.4727   -2.1138 H   0  0  0  0  0  0  0  0  0  0  0  0
    6.9683   -7.7733   -2.5714 H   0  0  0  0  0  0  0  0  0  0  0  0
    6.3892   -8.2650   -0.9663 H   0  0  0  0  0  0  0  0  0  0  0  0
    9.4649   -7.6767   -3.0278 H   0  0  0  0  0  0  0  0  0  0  0  0
    9.4948   -9.4218   -2.7708 H   0  0  0  0  0  0  0  0  0  0  0  0
   10.5970   -8.3812   -1.8694 H   0  0  0  0  0  0  0  0  0  0  0  0
    5.3317   -5.0497    0.2505 P   0  0  0  0  0  0  0  0  0  0  0  0
    6.0173   -5.8319    3.6311 N   0  0  0  0  0  0  0  0  0  0  0  0
    5.7179   -7.1053    3.3157 C   0  0  0  0  0  0  0  0  0  0  0  0
    4.9348   -7.8812    4.2047 C   0  0  0  0  0  0  0  0  0  0  0  0
    4.4726   -7.3046    5.3744 C   0  0  0  0  0  0  0  0  0  0  0  0
    4.7981   -5.9766    5.6458 C   0  0  0  0  0  0  0  0  0  0  0  0
    5.5675   -5.2623    4.7683 C   0  0  0  0  0  0  0  0  0  0  0  0
    6.7821   -5.0859    2.8424 O   0  0  0  0  0  0  0  0  0  0  0  0
    6.2615   -7.7951    1.8331 S   0  0  0  0  0  0  0  0  0  0  0  0
    3.8674   -7.8621    6.0673 H   0  0  0  0  0  0  0  0  0  0  0  0
    4.4455   -5.5041    6.5460 H   0  0  0  0  0  0  0  0  0  0  0  0
    5.8610   -4.2360    4.9148 H   0  0  0  0  0  0  0  0  0  0  0  0
    4.7138   -9.1375    3.7869 O   0  0  0  0  0  0  0  0  0  0  0  0
    3.9192   -9.9909    4.5957 C   0  0  0  0  0  0  0  0  0  0  0  0
    4.3805  -10.1466    5.5730 H   0  0  0  0  0  0  0  0  0  0  0  0
    3.8737  -10.9351    4.0588 H   0  0  0  0  0  0  0  0  0  0  0  0
    2.9120   -9.5875    4.7164 H   0  0  0  0  0  0  0  0  0  0  0  0
    5.0533   -3.2309    0.5046 C   0  0  0  0  0  0  0  0  0  0  0  0
    3.7654   -2.8245   -0.0142 N   0  0  0  0  0  0  0  0  0  0  0  0
    3.6593   -3.0617   -1.4462 C   0  0  0  0  0  0  0  0  0  0  0  0
    3.6186   -4.4734   -1.7911 N   0  0  0  0  0  0  0  0  0  0  0  0
    2.5248   -5.1095   -1.0763 C   0  0  0  0  0  0  0  0  0  0  0  0
    2.6012   -4.9227    0.3652 N   0  0  0  0  0  0  0  0  0  0  0  0
    3.7104   -5.6470    0.9459 C   0  0  0  0  0  0  0  0  0  0  0  0
    2.6683   -3.4993    0.6604 C   0  0  0  0  0  0  0  0  0  0  0  0
    1.7328   -3.0407    0.3291 H   0  0  0  0  0  0  0  0  0  0  0  0
    2.7708   -3.3615    1.7392 H   0  0  0  0  0  0  0  0  0  0  0  0
    5.8424   -2.6731   -0.0104 H   0  0  0  0  0  0  0  0  0  0  0  0
    5.1085   -3.0040    1.5755 H   0  0  0  0  0  0  0  0  0  0  0  0
    4.5054   -2.5912   -1.9511 H   0  0  0  0  0  0  0  0  0  0  0  0
    2.7328   -2.5993   -1.7970 H   0  0  0  0  0  0  0  0  0  0  0  0
    3.6994   -5.5030    2.0335 H   0  0  0  0  0  0  0  0  0  0  0  0
    2.5224   -6.1787   -1.2979 H   0  0  0  0  0  0  0  0  0  0  0  0
    1.5865   -4.6689   -1.4239 H   0  0  0  0  0  0  0  0  0  0  0  0
    3.6026   -6.7181    0.7348 H   0  0  0  0  0  0  0  0  0  0  0  0
    4.8828   -5.1299   -1.5482 C   0  0  0  0  0  0  0  0  0  0  0  0
    4.8143   -6.1784   -1.8550 H   0  0  0  0  0  0  0  0  0  0  0  0
    5.6616   -4.6331   -2.1353 H   0  0  0  0  0  0  0  0  0  0  0  0
 29 38  1  0  0  0  0
 31 32  2  0  0  0  0
 27 28  1  0  0  0  0
 29 30  2  0  0  0  0
 27 32  1  0  0  0  0
  2 13  1  0  0  0  0
  6  7  4  0  0  0  0
 27 33  1  0  0  0  0
 30 31  1  0  0  0  0
  5 16  1  0  0  0  0
  2  3  4  0  0  0  0
  4  5  4  0  0  0  0
 28 29  1  0  0  0  0
 26 61  1  0  0  0  0
 38 39  1  0  0  0  0
 26 43  1  0  0  0  0
 16 17  1  0  0  0  0
  3  4  4  0  0  0  0
 16 18  1  0  0  0  0
 26 49  1  0  0  0  0
  5  6  4  0  0  0  0
  2  7  4  0  0  0  0
 30 35  1  0  0  0  0
 31 36  1  0  0  0  0
 32 37  1  0  0  0  0
  4  9  1  0  0  0  0
  7 12  1  0  0  0  0
  3  8  1  0  0  0  0
  6 11  1  0  0  0  0
 17 21  1  0  0  0  0
 17 20  1  0  0  0  0
 13 15  1  0  0  0  0
 18 24  1  0  0  0  0
 18 23  1  0  0  0  0
 39 41  1  0  0  0  0
 18 25  1  0  0  0  0
 13 14  1  0  0  0  0
 10 13  1  0  0  0  0
 17 22  1  0  0  0  0
 39 42  1  0  0  0  0
 45 55  1  0  0  0  0
 39 40  1  0  0  0  0
 47 58  1  0  0  0  0
 50 52  1  0  0  0  0
 50 51  1  0  0  0  0
 45 56  1  0  0  0  0
 47 59  1  0  0  0  0
 61 63  1  0  0  0  0
 61 62  1  0  0  0  0
 43 53  1  0  0  0  0
 16 19  1  0  0  0  0
 43 54  1  0  0  0  0
 49 60  1  0  0  0  0
 49 57  1  0  0  0  0
 28 34  2  0  0  0  0
 46 61  1  0  0  0  0
 48 49  1  0  0  0  0
 43 44  1  0  0  0  0
 46 47  1  0  0  0  0
 45 46  1  0  0  0  0
 44 50  1  0  0  0  0
 48 50  1  0  0  0  0
 44 45  1  0  0  0  0
 47 48  1  0  0  0  0
  1 26  1  0  0  0  0
  1 34  1  0  0  0  0
  1 33  1  0  0  0  0
  1  6  1  0  0  0  0
  1  2  1  0  0  0  0
  1  3  1  0  0  0  0
M  END
$$$$
