compound_22
  GFN2-xTB geometry (ORCA XTB2, DDCOSMO(water))

 47 57  0  0  0  0  0  0  0  0999 V2000
   -0.3157   -0.6266   -1.1349 C   0  0  0  0  0  0  0  0  0  0  0  0
   -1.3305   -1.0448   -0.2351 C   0  0  0  0  0  0  0  0  0  0  0  0
   -1.0280   -2.1718    0.5705 C   0  0  0  0  0  0  0  0  0  0  0  0
    0.2248   -2.7954    0.4402 C   0  0  0  0  0  0  0  0  0  0  0  0
    1.2402   -2.3747   -0.4703 C   0  0  0  0  0  0  0  0  0  0  0  0
    0.9245   -1.2706   -1.2492 C   0  0  0  0  0  0  0  0  0  0  0  0
    2.2852   -5.9327    1.9495 H   0  0  0  0  0  0  0  0  0  0  0  0
    4.5365   -6.1989    0.9560 H   0  0  0  0  0  0  0  0  0  0  0  0
   -3.7348   -2.6020    2.3345 H   0  0  0  0  0  0  0  0  0  0  0  0
   -2.9160   -3.7406    4.7665 H   0  0  0  0  0  0  0  0  0  0  0  0
   -2.6013   -0.4739   -0.0543 C   0  0  0  0  0  0  0  0  0  0  0  0
   -3.4517   -1.0379    0.8716 C   0  0  0  0  0  0  0  0  0  0  0  0
   -3.0609   -2.1544    1.6177 C   0  0  0  0  0  0  0  0  0  0  0  0
   -1.8705   -2.7126    1.4761 N   0  0  0  0  0  0  0  0  0  0  0  0
   -2.8858    0.3858   -0.6408 H   0  0  0  0  0  0  0  0  0  0  0  0
   -4.4334   -0.6240    1.0318 H   0  0  0  0  0  0  0  0  0  0  0  0
    2.3046   -3.3093   -0.2535 C   0  0  0  0  0  0  0  0  0  0  0  0
    1.8379   -4.2060    0.7571 C   0  0  0  0  0  0  0  0  0  0  0  0
    0.5703   -3.8597    1.1667 N   0  0  0  0  0  0  0  0  0  0  0  0
    3.9338   -2.7933   -1.5659 H   0  0  0  0  0  0  0  0  0  0  0  0
    2.6419   -5.2498    1.1944 C   0  0  0  0  0  0  0  0  0  0  0  0
    3.8939   -5.3926    0.6337 C   0  0  0  0  0  0  0  0  0  0  0  0
    4.3592   -4.5136   -0.3532 C   0  0  0  0  0  0  0  0  0  0  0  0
    3.5685   -3.4649   -0.8039 C   0  0  0  0  0  0  0  0  0  0  0  0
    1.7029   -0.5588   -2.2877 C   0  0  0  0  0  0  0  0  0  0  0  0
    0.8981    0.4601   -2.7331 N   0  0  0  0  0  0  0  0  0  0  0  0
   -0.3374    0.4782   -2.0785 C   0  0  0  0  0  0  0  0  0  0  0  0
   -1.2062    1.2998   -2.3129 O   0  0  0  0  0  0  0  0  0  0  0  0
    2.8252   -0.7833   -2.7002 O   0  0  0  0  0  0  0  0  0  0  0  0
    6.0347   -5.4301   -0.5041 H   0  0  0  0  0  0  0  0  0  0  0  0
   -0.9889   -4.3334    2.4836 Ru  0  0  0  0  0  0  0  0  0  0  0  0
   -1.7027   -5.5040    1.2631 C   0  0  0  0  0  0  0  0  0  0  0  0
   -2.1460   -6.2447    0.4958 O   0  0  0  0  0  0  0  0  0  0  0  0
    0.3613   -4.0920    4.2910 C   0  0  0  0  0  0  0  0  0  0  0  0
   -0.7554   -3.2511    4.4380 C   0  0  0  0  0  0  0  0  0  0  0  0
   -1.9272   -4.0737    4.4851 C   0  0  0  0  0  0  0  0  0  0  0  0
   -1.5108   -5.4256    4.3794 C   0  0  0  0  0  0  0  0  0  0  0  0
   -0.0923   -5.4416    4.2149 C   0  0  0  0  0  0  0  0  0  0  0  0
   -0.7239   -2.1917    4.6560 H   0  0  0  0  0  0  0  0  0  0  0  0
   -2.1383   -6.2967    4.5179 H   0  0  0  0  0  0  0  0  0  0  0  0
    0.5356   -6.3195    4.2694 H   0  0  0  0  0  0  0  0  0  0  0  0
    1.3973   -3.7819    4.3214 H   0  0  0  0  0  0  0  0  0  0  0  0
    5.5964   -4.6601   -0.8976 O   0  0  0  0  0  0  0  0  0  0  0  0
    1.2762    1.4020   -3.7589 C   0  0  0  0  0  0  0  0  0  0  0  0
    2.1851    1.9265   -3.4644 H   0  0  0  0  0  0  0  0  0  0  0  0
    0.4548    2.1067   -3.8750 H   0  0  0  0  0  0  0  0  0  0  0  0
    1.4574    0.8787   -4.6979 H   0  0  0  0  0  0  0  0  0  0  0  0
  1  2  1  0  0  0  0
  5 17  1  0  0  0  0
  1 27  1  0  0  0  0
 23 43  1  0  0  0  0
  4 19  1  0  0  0  0
  6 25  1  0  0  0  0
 11 12  2  0  0  0  0
 21 22  4  0  0  0  0
 13 14  2  0  0  0  0
  3 14  1  0  0  0  0
 17 24  4  0  0  0  0
  5  6  1  0  0  0  0
 18 21  4  0  0  0  0
 23 24  4  0  0  0  0
 12 13  1  0  0  0  0
 22 23  4  0  0  0  0
  1  6  2  0  0  0  0
  2 11  1  0  0  0  0
  3  4  1  0  0  0  0
 34 35  4  0  0  0  0
 25 26  1  0  0  0  0
 18 19  1  0  0  0  0
  2  3  2  0  0  0  0
 36 37  4  0  0  0  0
 34 38  4  0  0  0  0
  4  5  2  0  0  0  0
 37 38  4  0  0  0  0
 17 18  4  0  0  0  0
 35 36  4  0  0  0  0
 26 27  1  0  0  0  0
 12 16  1  0  0  0  0
  7 21  1  0  0  0  0
 11 15  1  0  0  0  0
 20 24  1  0  0  0  0
  8 22  1  0  0  0  0
 30 43  1  0  0  0  0
 38 41  1  0  0  0  0
 10 36  1  0  0  0  0
  9 13  1  0  0  0  0
 34 42  1  0  0  0  0
 35 39  1  0  0  0  0
 37 40  1  0  0  0  0
 44 46  1  0  0  0  0
 44 45  1  0  0  0  0
 44 47  1  0  0  0  0
 26 44  1  0  0  0  0
 32 33  2  0  0  0  0
 25 29  2  0  0  0  0
 27 28  2  0  0  0  0
 31 19  1  0  0  0  0
 31 32  1  0  0  0  0
 31 34  1  0  0  0  0
 31 36  1  0  0  0  0
 31 37  1  0  0  0  0
 31 38  1  0  0  0  0
 31 14  1  0  0  0  0
 31 35  1  0  0  0  0
M  END
$$$$
