compound_91
  GFN2-xTB geometry (ORCA XTB2, DDCOSMO(water))

 96101  0  0  0  0  0  0  0  0999 V2000
   -1.4435   -0.3720    2.6958 Ru  0  0  0  0  0  0  0  0  0  0  0  0
    0.7996    0.5035    2.6413 C   0  0  0  0  0  0  0  0  0  0  0  0
    0.0138    0.9771    1.5588 C   0  0  0  0  0  0  0  0  0  0  0  0
   -1.1447    1.7378    1.7982 C   0  0  0  0  0  0  0  0  0  0  0  0
   -1.5521    2.0251    3.1236 C   0  0  0  0  0  0  0  0  0  0  0  0
   -0.6842    1.6714    4.1846 C   0  0  0  0  0  0  0  0  0  0  0  0
    0.4707    0.9330    3.9486 C   0  0  0  0  0  0  0  0  0  0  0  0
   -3.9297   -1.6219    1.5075 C   0  0  0  0  0  0  0  0  0  0  0  0
   -2.7901    2.8558    3.3756 C   0  0  0  0  0  0  0  0  0  0  0  0
   -3.4492   -0.5863    1.9661 O   0  0  0  0  0  0  0  0  0  0  0  0
   -3.3000    4.8777    3.9180 H   0  0  0  0  0  0  0  0  0  0  0  0
   -1.5315   -3.8061    0.1114 C   0  0  0  0  0  0  0  0  0  0  0  0
   -1.7081   -5.1903    0.1322 C   0  0  0  0  0  0  0  0  0  0  0  0
   -1.3595   -5.9727   -0.9542 C   0  0  0  0  0  0  0  0  0  0  0  0
   -0.8205   -5.3791   -2.0831 C   0  0  0  0  0  0  0  0  0  0  0  0
   -0.6018   -4.0106   -2.1121 C   0  0  0  0  0  0  0  0  0  0  0  0
   -1.0877   -2.0325    1.5731 O   0  0  0  0  0  0  0  0  0  0  0  0
   -3.3645    2.8929    2.4442 H   0  0  0  0  0  0  0  0  0  0  0  0
   -2.4026    4.2838    3.7702 C   0  0  0  0  0  0  0  0  0  0  0  0
   -1.7019    2.1553    0.9663 H   0  0  0  0  0  0  0  0  0  0  0  0
   -4.6439    2.6970    4.4756 H   0  0  0  0  0  0  0  0  0  0  0  0
   -3.2212    2.2831    5.4318 H   0  0  0  0  0  0  0  0  0  0  0  0
   -3.2979   -2.9721    1.7987 C   0  0  0  0  0  0  0  0  0  0  0  0
   -3.8213    1.1475    4.2255 H   0  0  0  0  0  0  0  0  0  0  0  0
   -0.9103    1.9952    5.1916 H   0  0  0  0  0  0  0  0  0  0  0  0
   -3.2142   -3.0738    2.8913 H   0  0  0  0  0  0  0  0  0  0  0  0
    2.3635   -0.8374    3.2318 H   0  0  0  0  0  0  0  0  0  0  0  0
    0.3595    0.8150    0.5436 H   0  0  0  0  0  0  0  0  0  0  0  0
   -3.8865   -3.7842    1.3837 H   0  0  0  0  0  0  0  0  0  0  0  0
    1.1332    0.6896    4.7692 H   0  0  0  0  0  0  0  0  0  0  0  0
   -0.1638   -3.5479   -2.9814 H   0  0  0  0  0  0  0  0  0  0  0  0
   -9.3008   14.6123    9.3074 H   0  0  0  0  0  0  0  0  0  0  0  0
   -1.5037   -7.0397   -0.9058 H   0  0  0  0  0  0  0  0  0  0  0  0
   -0.5589   -5.9924   -2.9298 H   0  0  0  0  0  0  0  0  0  0  0  0
   -1.9371   -1.6920    4.9459 Cl  0  0  0  0  0  0  0  0  0  0  0  0
   -0.7904   -2.1672   -1.0265 H   0  0  0  0  0  0  0  0  0  0  0  0
   -0.9454   -3.2353   -1.0233 C   0  0  0  0  0  0  0  0  0  0  0  0
   -1.8974   -2.9109    1.2213 C   0  0  0  0  0  0  0  0  0  0  0  0
    2.0861   -0.2222    2.3790 C   0  0  0  0  0  0  0  0  0  0  0  0
    2.8788    0.5061    2.2069 H   0  0  0  0  0  0  0  0  0  0  0  0
    2.0009   -0.8555    1.4990 H   0  0  0  0  0  0  0  0  0  0  0  0
   -3.6736    2.2106    4.4457 C   0  0  0  0  0  0  0  0  0  0  0  0
   -1.8012    4.7412    2.9894 H   0  0  0  0  0  0  0  0  0  0  0  0
   -1.8308    4.2830    4.6943 H   0  0  0  0  0  0  0  0  0  0  0  0
   -5.1160   -1.6054    0.5950 C   0  0  0  0  0  0  0  0  0  0  0  0
   -5.6691   -0.1987    0.3778 C   0  0  0  0  0  0  0  0  0  0  0  0
   -6.3750    0.3382    1.6233 C   0  0  0  0  0  0  0  0  0  0  0  0
   -6.6522    1.8356    1.5194 C   0  0  0  0  0  0  0  0  0  0  0  0
   -7.3467    2.3758    2.7672 C   0  0  0  0  0  0  0  0  0  0  0  0
   -7.4125    3.9013    2.7715 C   0  0  0  0  0  0  0  0  0  0  0  0
   -8.0591    4.4469    4.0424 C   0  0  0  0  0  0  0  0  0  0  0  0
   -8.0708    5.9736    4.0688 C   0  0  0  0  0  0  0  0  0  0  0  0
   -8.6983    6.5234    5.3475 C   0  0  0  0  0  0  0  0  0  0  0  0
   -8.6778    8.0497    5.3851 C   0  0  0  0  0  0  0  0  0  0  0  0
   -9.2933    8.6030    6.6682 C   0  0  0  0  0  0  0  0  0  0  0  0
   -9.2501   10.1286    6.7129 C   0  0  0  0  0  0  0  0  0  0  0  0
   -9.8583   10.6849    7.9982 C   0  0  0  0  0  0  0  0  0  0  0  0
   -9.8011   12.2100    8.0467 C   0  0  0  0  0  0  0  0  0  0  0  0
  -10.4064   12.7685    9.3323 C   0  0  0  0  0  0  0  0  0  0  0  0
  -10.3428   14.2934    9.3835 C   0  0  0  0  0  0  0  0  0  0  0  0
  -10.9489   14.8447   10.6686 C   0  0  0  0  0  0  0  0  0  0  0  0
  -10.4172   14.4593   11.5357 H   0  0  0  0  0  0  0  0  0  0  0  0
  -11.9936   14.5537   10.7518 H   0  0  0  0  0  0  0  0  0  0  0  0
  -10.8918   15.9303   10.6845 H   0  0  0  0  0  0  0  0  0  0  0  0
   -5.8802   -2.2616    1.0183 H   0  0  0  0  0  0  0  0  0  0  0  0
   -4.8008   -2.0513   -0.3521 H   0  0  0  0  0  0  0  0  0  0  0  0
   -6.3681   -0.2117   -0.4579 H   0  0  0  0  0  0  0  0  0  0  0  0
   -4.8424    0.4673    0.1228 H   0  0  0  0  0  0  0  0  0  0  0  0
   -5.7461    0.1608    2.5002 H   0  0  0  0  0  0  0  0  0  0  0  0
   -7.3123   -0.1999    1.7765 H   0  0  0  0  0  0  0  0  0  0  0  0
   -7.2688    2.0365    0.6412 H   0  0  0  0  0  0  0  0  0  0  0  0
   -5.7026    2.3588    1.3882 H   0  0  0  0  0  0  0  0  0  0  0  0
   -6.8018    2.0374    3.6523 H   0  0  0  0  0  0  0  0  0  0  0  0
   -8.3570    1.9658    2.8320 H   0  0  0  0  0  0  0  0  0  0  0  0
   -7.9777    4.2430    1.9018 H   0  0  0  0  0  0  0  0  0  0  0  0
   -6.4000    4.3027    2.6867 H   0  0  0  0  0  0  0  0  0  0  0  0
   -7.5115    4.0765    4.9129 H   0  0  0  0  0  0  0  0  0  0  0  0
   -9.0834    4.0746    4.1183 H   0  0  0  0  0  0  0  0  0  0  0  0
   -8.6260    6.3460    3.2050 H   0  0  0  0  0  0  0  0  0  0  0  0
   -7.0457    6.3421    3.9862 H   0  0  0  0  0  0  0  0  0  0  0  0
   -8.1544    6.1346    6.2118 H   0  0  0  0  0  0  0  0  0  0  0  0
   -9.7302    6.1729    5.4245 H   0  0  0  0  0  0  0  0  0  0  0  0
   -9.2263    8.4396    4.5246 H   0  0  0  0  0  0  0  0  0  0  0  0
   -7.6454    8.3974    5.3033 H   0  0  0  0  0  0  0  0  0  0  0  0
   -8.7529    8.2019    7.5291 H   0  0  0  0  0  0  0  0  0  0  0  0
  -10.3302    8.2680    6.7459 H   0  0  0  0  0  0  0  0  0  0  0  0
   -9.7925   10.5303    5.8539 H   0  0  0  0  0  0  0  0  0  0  0  0
   -8.2126   10.4616    6.6325 H   0  0  0  0  0  0  0  0  0  0  0  0
   -9.3208   10.2765    8.8574 H   0  0  0  0  0  0  0  0  0  0  0  0
  -10.8984   10.3596    8.0760 H   0  0  0  0  0  0  0  0  0  0  0  0
  -10.3387   12.6185    7.1877 H   0  0  0  0  0  0  0  0  0  0  0  0
   -8.7605   12.5339    7.9680 H   0  0  0  0  0  0  0  0  0  0  0  0
   -9.8710   12.3569   10.1913 H   0  0  0  0  0  0  0  0  0  0  0  0
  -11.4482   12.4486    9.4094 H   0  0  0  0  0  0  0  0  0  0  0  0
  -10.8776   14.7044    8.5243 H   0  0  0  0  0  0  0  0  0  0  0  0
   -2.3314   -6.0800    1.7282 Br  0  0  0  0  0  0  0  0  0  0  0  0
 12 38  1  0  0  0  0
 16 37  4  0  0  0  0
 13 14  4  0  0  0  0
 14 15  4  0  0  0  0
 15 16  4  0  0  0  0
  8 45  1  0  0  0  0
  2 39  1  0  0  0  0
  6  7  4  0  0  0  0
 12 13  4  0  0  0  0
 12 37  4  0  0  0  0
  5  9  1  0  0  0  0
 23 38  1  0  0  0  0
  3  4  4  0  0  0  0
  8 23  1  0  0  0  0
 60 61  1  0  0  0  0
 47 48  1  0  0  0  0
  2  7  4  0  0  0  0
 50 51  1  0  0  0  0
 52 53  1  0  0  0  0
 54 55  1  0  0  0  0
 58 59  1  0  0  0  0
 56 57  1  0  0  0  0
 49 50  1  0  0  0  0
 48 49  1  0  0  0  0
 53 54  1  0  0  0  0
 55 56  1  0  0  0  0
 51 52  1  0  0  0  0
 57 58  1  0  0  0  0
 45 46  1  0  0  0  0
 59 60  1  0  0  0  0
  5  6  4  0  0  0  0
  4  5  4  0  0  0  0
 46 47  1  0  0  0  0
  9 42  1  0  0  0  0
  2  3  4  0  0  0  0
  9 19  1  0  0  0  0
 15 34  1  0  0  0  0
 16 31  1  0  0  0  0
 14 33  1  0  0  0  0
 36 37  1  0  0  0  0
 13 96  1  0  0  0  0
  6 25  1  0  0  0  0
  7 30  1  0  0  0  0
  3 28  1  0  0  0  0
  4 20  1  0  0  0  0
 23 29  1  0  0  0  0
 21 42  1  0  0  0  0
 11 19  1  0  0  0  0
 19 43  1  0  0  0  0
 19 44  1  0  0  0  0
 61 64  1  0  0  0  0
 22 42  1  0  0  0  0
 39 41  1  0  0  0  0
 27 39  1  0  0  0  0
 61 63  1  0  0  0  0
 61 62  1  0  0  0  0
 46 67  1  0  0  0  0
 39 40  1  0  0  0  0
 48 71  1  0  0  0  0
 47 70  1  0  0  0  0
 46 68  1  0  0  0  0
 48 72  1  0  0  0  0
 50 75  1  0  0  0  0
 49 74  1  0  0  0  0
 52 79  1  0  0  0  0
 60 95  1  0  0  0  0
 32 60  1  0  0  0  0
 54 83  1  0  0  0  0
 56 87  1  0  0  0  0
 51 78  1  0  0  0  0
 50 76  1  0  0  0  0
 52 80  1  0  0  0  0
 54 84  1  0  0  0  0
 53 82  1  0  0  0  0
 55 86  1  0  0  0  0
 56 88  1  0  0  0  0
 57 90  1  0  0  0  0
 58 91  1  0  0  0  0
 59 94  1  0  0  0  0
 45 65  1  0  0  0  0
 58 92  1  0  0  0  0
 57 89  1  0  0  0  0
 59 93  1  0  0  0  0
 55 85  1  0  0  0  0
 53 81  1  0  0  0  0
 49 73  1  0  0  0  0
 51 77  1  0  0  0  0
 45 66  1  0  0  0  0
 47 69  1  0  0  0  0
  9 18  1  0  0  0  0
 24 42  1  0  0  0  0
 23 26  1  0  0  0  0
  8 10  2  0  0  0  0
 17 38  2  0  0  0  0
  1 10  1  0  0  0  0
  1  2  1  0  0  0  0
  1  3  1  0  0  0  0
  1  4  1  0  0  0  0
  1  5  1  0  0  0  0
  1 17  1  0  0  0  0
  1 35  1  0  0  0  0
M  END
$$$$
