compound_19
  GFN2-xTB geometry (ORCA XTB2, DDCOSMO(water))

 66 74  0  0  0  0  0  0  0  0999 V2000
   -1.2692   -0.8527   -1.8751 C   0  0  0  0  0  0  0  0  0  0  0  0
   -1.4805   -0.9021   -0.4654 C   0  0  0  0  0  0  0  0  0  0  0  0
   -0.4371   -1.4498    0.3235 C   0  0  0  0  0  0  0  0  0  0  0  0
    0.7236   -1.9487   -0.3042 C   0  0  0  0  0  0  0  0  0  0  0  0
    0.9194   -1.9237   -1.7139 C   0  0  0  0  0  0  0  0  0  0  0  0
   -0.1007   -1.3605   -2.4655 C   0  0  0  0  0  0  0  0  0  0  0  0
    4.2239   -3.8157    0.5375 H   0  0  0  0  0  0  0  0  0  0  0  0
   -5.6924    0.7859   -1.8196 H   0  0  0  0  0  0  0  0  0  0  0  0
   -1.5163   -1.1240    3.3837 H   0  0  0  0  0  0  0  0  0  0  0  0
    4.8273   -3.6303   -3.6926 H   0  0  0  0  0  0  0  0  0  0  0  0
   -2.6450   -0.4736    0.2458 C   0  0  0  0  0  0  0  0  0  0  0  0
   -2.6126   -0.5342    1.6365 C   0  0  0  0  0  0  0  0  0  0  0  0
   -1.5216   -1.0691    2.3032 C   0  0  0  0  0  0  0  0  0  0  0  0
   -0.4609   -1.5441    1.6734 N   0  0  0  0  0  0  0  0  0  0  0  0
    4.1919   -1.2081    1.5111 H   0  0  0  0  0  0  0  0  0  0  0  0
   -3.4427   -0.1871    2.2256 H   0  0  0  0  0  0  0  0  0  0  0  0
    2.2024   -2.5233   -1.9065 C   0  0  0  0  0  0  0  0  0  0  0  0
    2.6640   -2.8683   -0.5994 C   0  0  0  0  0  0  0  0  0  0  0  0
    1.7522   -2.4937    0.3600 N   0  0  0  0  0  0  0  0  0  0  0  0
    2.6199   -2.5439   -4.0068 H   0  0  0  0  0  0  0  0  0  0  0  0
    3.8947   -3.4949   -0.4383 C   0  0  0  0  0  0  0  0  0  0  0  0
    4.6519   -3.7552   -1.5625 C   0  0  0  0  0  0  0  0  0  0  0  0
    4.2081   -3.4075   -2.8379 C   0  0  0  0  0  0  0  0  0  0  0  0
    2.9831   -2.8000   -3.0223 C   0  0  0  0  0  0  0  0  0  0  0  0
   -0.1832   -1.1690   -3.9254 C   0  0  0  0  0  0  0  0  0  0  0  0
   -1.3814   -0.5452   -4.1369 N   0  0  0  0  0  0  0  0  0  0  0  0
   -2.0872   -0.2968   -2.9536 C   0  0  0  0  0  0  0  0  0  0  0  0
   -3.1434    0.3008   -2.9628 O   0  0  0  0  0  0  0  0  0  0  0  0
    0.6115   -1.4718   -4.7951 O   0  0  0  0  0  0  0  0  0  0  0  0
   -1.7245   -0.2644   -5.0434 H   0  0  0  0  0  0  0  0  0  0  0  0
    1.1760   -2.5819    2.4017 Ru  0  0  0  0  0  0  0  0  0  0  0  0
   -5.6442    2.2131    1.0179 H   0  0  0  0  0  0  0  0  0  0  0  0
   -4.5090    2.4672   -0.3164 H   0  0  0  0  0  0  0  0  0  0  0  0
    2.3844   -0.6512    2.8848 S   0  0  0  0  0  0  0  0  0  0  0  0
    2.3539   -0.5517    4.7454 C   0  0  0  0  0  0  0  0  0  0  0  0
    1.0899   -1.1139    5.3572 C   0  0  0  0  0  0  0  0  0  0  0  0
    0.3828   -2.6460    4.5867 S   0  0  0  0  0  0  0  0  0  0  0  0
    1.3391   -4.0126    5.3537 C   0  0  0  0  0  0  0  0  0  0  0  0
    2.7912   -4.0636    4.9414 C   0  0  0  0  0  0  0  0  0  0  0  0
    2.9446   -3.6798    3.1286 S   0  0  0  0  0  0  0  0  0  0  0  0
    4.4449   -2.5816    3.1669 C   0  0  0  0  0  0  0  0  0  0  0  0
    4.1089   -1.2169    2.5997 C   0  0  0  0  0  0  0  0  0  0  0  0
    4.7544   -0.4443    3.0164 H   0  0  0  0  0  0  0  0  0  0  0  0
    2.4158    0.5133    4.9668 H   0  0  0  0  0  0  0  0  0  0  0  0
    3.2482   -1.0456    5.1089 H   0  0  0  0  0  0  0  0  0  0  0  0
    0.2691   -0.4054    5.2552 H   0  0  0  0  0  0  0  0  0  0  0  0
    1.2390   -1.3435    6.4105 H   0  0  0  0  0  0  0  0  0  0  0  0
    0.7980   -4.9021    5.0238 H   0  0  0  0  0  0  0  0  0  0  0  0
    1.2323   -3.8986    6.4319 H   0  0  0  0  0  0  0  0  0  0  0  0
    3.2083   -5.0630    5.0472 H   0  0  0  0  0  0  0  0  0  0  0  0
    3.3772   -3.3469    5.5086 H   0  0  0  0  0  0  0  0  0  0  0  0
    4.8079   -2.5234    4.1887 H   0  0  0  0  0  0  0  0  0  0  0  0
    5.1850   -3.0927    2.5552 H   0  0  0  0  0  0  0  0  0  0  0  0
   -3.6836   -0.0736   -0.4781 O   0  0  0  0  0  0  0  0  0  0  0  0
    3.3428   -4.9377    2.4885 O   0  0  0  0  0  0  0  0  0  0  0  0
   -6.9187    0.6473   -0.5433 H   0  0  0  0  0  0  0  0  0  0  0  0
   -6.1102   -0.7975   -1.1754 H   0  0  0  0  0  0  0  0  0  0  0  0
   -5.1334   -0.2278    0.9978 H   0  0  0  0  0  0  0  0  0  0  0  0
   -4.8921    0.4053    0.1361 C   0  0  0  0  0  0  0  0  0  0  0  0
   -4.7254    1.8613    0.5603 C   0  0  0  0  0  0  0  0  0  0  0  0
   -5.9814    0.2507   -0.9182 C   0  0  0  0  0  0  0  0  0  0  0  0
   -3.9080    1.9708    1.2673 H   0  0  0  0  0  0  0  0  0  0  0  0
    0.1758   -4.4022    1.9865 N   0  0  0  0  0  0  0  0  0  0  0  0
    0.3072   -5.1198    1.0810 N   0  0  0  0  0  0  0  0  0  0  0  0
    0.3556   -5.8935    0.2371 N   0  0  0  0  0  0  0  0  0  0  0  0
    5.6061   -4.2474   -1.4526 H   0  0  0  0  0  0  0  0  0  0  0  0
 64 65  4  0  0  0  0
 63 64  4  0  0  0  0
  5 17  1  0  0  0  0
 11 54  1  0  0  0  0
  2 11  1  0  0  0  0
  1 27  1  0  0  0  0
  6 25  1  0  0  0  0
  4 19  1  0  0  0  0
 23 24  4  0  0  0  0
 21 22  4  0  0  0  0
 13 14  2  0  0  0  0
 12 13  1  0  0  0  0
  5  6  4  0  0  0  0
 17 24  4  0  0  0  0
  3 14  1  0  0  0  0
 18 21  4  0  0  0  0
 11 12  2  0  0  0  0
 22 23  4  0  0  0  0
 38 39  1  0  0  0  0
 35 36  1  0  0  0  0
  1  6  4  0  0  0  0
 25 26  1  0  0  0  0
 41 42  1  0  0  0  0
  3  4  4  0  0  0  0
 59 61  1  0  0  0  0
 18 19  1  0  0  0  0
 59 60  1  0  0  0  0
  2  3  4  0  0  0  0
  4  5  4  0  0  0  0
  1  2  4  0  0  0  0
 17 18  4  0  0  0  0
 12 16  1  0  0  0  0
 54 59  1  0  0  0  0
 26 27  1  0  0  0  0
  7 21  1  0  0  0  0
 10 23  1  0  0  0  0
 22 66  1  0  0  0  0
 26 30  1  0  0  0  0
 20 24  1  0  0  0  0
  9 13  1  0  0  0  0
 35 45  1  0  0  0  0
 56 61  1  0  0  0  0
 32 60  1  0  0  0  0
 37 38  1  0  0  0  0
 39 51  1  0  0  0  0
 41 52  1  0  0  0  0
 34 42  1  0  0  0  0
 60 62  1  0  0  0  0
 57 61  1  0  0  0  0
  8 61  1  0  0  0  0
 33 60  1  0  0  0  0
 41 53  1  0  0  0  0
 39 50  1  0  0  0  0
 36 47  1  0  0  0  0
 36 46  1  0  0  0  0
 38 49  1  0  0  0  0
 35 44  1  0  0  0  0
 42 43  1  0  0  0  0
 15 42  1  0  0  0  0
 38 48  1  0  0  0  0
 58 59  1  0  0  0  0
 36 37  1  0  0  0  0
 39 40  1  0  0  0  0
 40 41  1  0  0  0  0
 34 35  1  0  0  0  0
 27 28  2  0  0  0  0
 25 29  2  0  0  0  0
 40 55  2  0  0  0  0
 31 63  1  0  0  0  0
 31 14  1  0  0  0  0
 31 19  1  0  0  0  0
 31 34  1  0  0  0  0
 31 37  1  0  0  0  0
 31 40  1  0  0  0  0
M  END
$$$$
