compound_111
  GFN2-xTB geometry (ORCA XTB2, DDCOSMO(water))

 44 50  0  0  0  0  0  0  0  0999 V2000
    9.2956   -3.9306   -1.6696 Ru  0  0  0  0  0  0  0  0  0  0  0  0
   11.5744   -4.3605   -1.3452 C   0  0  0  0  0  0  0  0  0  0  0  0
   11.1640   -5.0031   -2.5332 C   0  0  0  0  0  0  0  0  0  0  0  0
   10.0980   -5.9300   -2.5459 C   0  0  0  0  0  0  0  0  0  0  0  0
    9.4045   -6.1439   -1.3263 C   0  0  0  0  0  0  0  0  0  0  0  0
    9.8077   -5.5039   -0.1300 C   0  0  0  0  0  0  0  0  0  0  0  0
   10.9196   -4.6231   -0.1213 C   0  0  0  0  0  0  0  0  0  0  0  0
    7.5873   -1.8521   -0.2989 N   0  0  0  0  0  0  0  0  0  0  0  0
   10.4226   -6.3667   -4.5955 H   0  0  0  0  0  0  0  0  0  0  0  0
    7.3739   -0.7387    0.3928 C   0  0  0  0  0  0  0  0  0  0  0  0
    9.3233   -5.7635    0.8048 H   0  0  0  0  0  0  0  0  0  0  0  0
    6.0885   -0.2590    0.6443 C   0  0  0  0  0  0  0  0  0  0  0  0
    9.9868   -8.2047   -3.5660 C   0  0  0  0  0  0  0  0  0  0  0  0
    8.8451   -2.2530   -0.4496 O   0  0  0  0  0  0  0  0  0  0  0  0
   11.0076   -8.3848   -3.2390 H   0  0  0  0  0  0  0  0  0  0  0  0
   11.8567   -3.0612    0.9986 H   0  0  0  0  0  0  0  0  0  0  0  0
    8.5993   -6.8699   -1.2881 H   0  0  0  0  0  0  0  0  0  0  0  0
   11.7257   -4.8313   -3.4466 H   0  0  0  0  0  0  0  0  0  0  0  0
   11.4322   -4.0493    1.1589 C   0  0  0  0  0  0  0  0  0  0  0  0
   12.4472   -3.7183   -1.3595 H   0  0  0  0  0  0  0  0  0  0  0  0
    6.9067   -4.0025   -1.7349 S   0  0  0  0  0  0  0  0  0  0  0  0
    9.8172   -8.7426   -4.4940 H   0  0  0  0  0  0  0  0  0  0  0  0
    9.7569   -6.7080   -3.7954 C   0  0  0  0  0  0  0  0  0  0  0  0
    9.3035   -8.5881   -2.8143 H   0  0  0  0  0  0  0  0  0  0  0  0
   12.2162   -4.7016    1.5443 H   0  0  0  0  0  0  0  0  0  0  0  0
    9.2714   -2.3336   -3.5084 Cl  0  0  0  0  0  0  0  0  0  0  0  0
    8.1553   -5.3559   -4.3421 H   0  0  0  0  0  0  0  0  0  0  0  0
    4.4575   -2.7523   -1.0190 H   0  0  0  0  0  0  0  0  0  0  0  0
    6.5468   -2.5778   -0.8214 C   0  0  0  0  0  0  0  0  0  0  0  0
    5.2537   -2.1581   -0.6020 C   0  0  0  0  0  0  0  0  0  0  0  0
    8.2616   -0.2380    0.7497 H   0  0  0  0  0  0  0  0  0  0  0  0
    4.9810   -0.9965    0.1321 C   0  0  0  0  0  0  0  0  0  0  0  0
   10.6414   -3.9832    1.9012 H   0  0  0  0  0  0  0  0  0  0  0  0
    8.3160   -6.4326   -4.2335 C   0  0  0  0  0  0  0  0  0  0  0  0
    7.6024   -6.8055   -3.5030 H   0  0  0  0  0  0  0  0  0  0  0  0
    8.1171   -6.9060   -5.1900 H   0  0  0  0  0  0  0  0  0  0  0  0
    5.8554    0.9223    1.3849 C   0  0  0  0  0  0  0  0  0  0  0  0
    4.5759    1.3458    1.6052 C   0  0  0  0  0  0  0  0  0  0  0  0
    3.4812    0.6173    1.1011 C   0  0  0  0  0  0  0  0  0  0  0  0
    3.6733   -0.5277    0.3803 C   0  0  0  0  0  0  0  0  0  0  0  0
    2.8412   -1.0911   -0.0103 H   0  0  0  0  0  0  0  0  0  0  0  0
    6.7019    1.4712    1.7648 H   0  0  0  0  0  0  0  0  0  0  0  0
    4.3933    2.2462    2.1699 H   0  0  0  0  0  0  0  0  0  0  0  0
    2.4814    0.9746    1.2910 H   0  0  0  0  0  0  0  0  0  0  0  0
 12 32  1  0  0  0  0
  8 10  1  0  0  0  0
 37 38  2  0  0  0  0
 39 40  2  0  0  0  0
 29 30  1  0  0  0  0
  7 19  1  0  0  0  0
  8 14  1  0  0  0  0
 10 12  2  0  0  0  0
  4 23  1  0  0  0  0
 30 32  2  0  0  0  0
 38 39  1  0  0  0  0
  8 29  1  0  0  0  0
 32 40  1  0  0  0  0
  2  3  4  0  0  0  0
  3  4  4  0  0  0  0
  2  7  4  0  0  0  0
 12 37  1  0  0  0  0
  5  6  4  0  0  0  0
  6  7  4  0  0  0  0
 23 34  1  0  0  0  0
  4  5  4  0  0  0  0
 13 23  1  0  0  0  0
 28 30  1  0  0  0  0
 37 42  1  0  0  0  0
 40 41  1  0  0  0  0
 38 43  1  0  0  0  0
 39 44  1  0  0  0  0
 10 31  1  0  0  0  0
  2 20  1  0  0  0  0
  6 11  1  0  0  0  0
  5 17  1  0  0  0  0
 34 36  1  0  0  0  0
 13 24  1  0  0  0  0
 13 22  1  0  0  0  0
  3 18  1  0  0  0  0
 19 33  1  0  0  0  0
 13 15  1  0  0  0  0
 34 35  1  0  0  0  0
 16 19  1  0  0  0  0
 19 25  1  0  0  0  0
 27 34  1  0  0  0  0
  9 23  1  0  0  0  0
 21 29  2  0  0  0  0
  1  4  1  0  0  0  0
  1  5  1  0  0  0  0
  1  6  1  0  0  0  0
  1  7  1  0  0  0  0
  1 21  1  0  0  0  0
  1 26  1  0  0  0  0
  1 14  1  0  0  0  0
M  END
$$$$
