compound_76
  GFN2-xTB geometry (ORCA XTB2, DDCOSMO(water))

 46 52  0  0  0  0  0  0  0  0999 V2000
   -0.9841   -1.2697    0.5755 Ru  0  0  0  0  0  0  0  0  0  0  0  0
   -0.5398   -0.4422   -1.5214 C   0  0  0  0  0  0  0  0  0  0  0  0
   -1.4890    0.4277   -0.9283 C   0  0  0  0  0  0  0  0  0  0  0  0
   -1.2509    1.0066    0.3273 C   0  0  0  0  0  0  0  0  0  0  0  0
   -0.0008    0.7313    0.9666 C   0  0  0  0  0  0  0  0  0  0  0  0
    0.9604   -0.0871    0.3583 C   0  0  0  0  0  0  0  0  0  0  0  0
    0.6997   -0.7034   -0.9016 C   0  0  0  0  0  0  0  0  0  0  0  0
   -2.3928    0.6679   -1.4748 H   0  0  0  0  0  0  0  0  0  0  0  0
    2.3806   -2.0271   -0.8512 H   0  0  0  0  0  0  0  0  0  0  0  0
    0.2339    1.2344    1.8992 H   0  0  0  0  0  0  0  0  0  0  0  0
    1.9331   -0.2187    0.8190 H   0  0  0  0  0  0  0  0  0  0  0  0
   -2.8306   -2.6267   -0.0539 Cl  0  0  0  0  0  0  0  0  0  0  0  0
   -0.7348   -0.8421   -2.5112 H   0  0  0  0  0  0  0  0  0  0  0  0
    0.3480   -5.9638    2.3982 C   0  0  0  0  0  0  0  0  0  0  0  0
   -0.4975   -4.8816    2.7080 C   0  0  0  0  0  0  0  0  0  0  0  0
   -1.3449   -5.3875    3.7361 C   0  0  0  0  0  0  0  0  0  0  0  0
   -1.0528   -6.6372    4.0239 N   0  0  0  0  0  0  0  0  0  0  0  0
   -0.0107   -6.9499    3.1988 N   0  0  0  0  0  0  0  0  0  0  0  0
   -2.3410   -4.6171    4.2731 N   0  0  0  0  0  0  0  0  0  0  0  0
   -2.5480   -3.3406    3.8669 C   0  0  0  0  0  0  0  0  0  0  0  0
   -3.4438   -2.6253    4.2746 O   0  0  0  0  0  0  0  0  0  0  0  0
   -1.6415   -2.8407    2.9266 N   0  0  0  0  0  0  0  0  0  0  0  0
   -0.6984   -3.5716    2.2291 C   0  0  0  0  0  0  0  0  0  0  0  0
   -2.9821   -5.0165    4.9463 H   0  0  0  0  0  0  0  0  0  0  0  0
   -0.1126   -2.9628    1.2428 N   0  0  0  0  0  0  0  0  0  0  0  0
   -1.3936   -0.8719    3.2050 H   0  0  0  0  0  0  0  0  0  0  0  0
    0.5669   -8.2598    3.2710 C   0  0  0  0  0  0  0  0  0  0  0  0
    0.9698   -8.4330    4.2688 H   0  0  0  0  0  0  0  0  0  0  0  0
    1.3610   -8.3298    2.5327 H   0  0  0  0  0  0  0  0  0  0  0  0
   -0.1953   -9.0128    3.0715 H   0  0  0  0  0  0  0  0  0  0  0  0
   -1.8258   -1.5018    2.5076 N   0  0  0  0  0  0  0  0  0  0  0  0
   -2.8396   -1.3040    2.5425 H   0  0  0  0  0  0  0  0  0  0  0  0
    0.5918   -3.5111    0.7526 H   0  0  0  0  0  0  0  0  0  0  0  0
    1.7509   -1.5194   -1.5769 C   0  0  0  0  0  0  0  0  0  0  0  0
    2.3864   -0.8573   -2.1667 H   0  0  0  0  0  0  0  0  0  0  0  0
    1.3119   -2.2506   -2.2512 H   0  0  0  0  0  0  0  0  0  0  0  0
   -2.2310    1.9562    0.9704 C   0  0  0  0  0  0  0  0  0  0  0  0
   -2.0318    3.3538    0.3707 C   0  0  0  0  0  0  0  0  0  0  0  0
   -3.6788    1.4886    0.8048 C   0  0  0  0  0  0  0  0  0  0  0  0
   -4.3234    2.0262    1.4947 H   0  0  0  0  0  0  0  0  0  0  0  0
   -3.7702    0.4209    1.0063 H   0  0  0  0  0  0  0  0  0  0  0  0
   -4.0443    1.6784   -0.2017 H   0  0  0  0  0  0  0  0  0  0  0  0
   -1.0158    3.7039    0.5335 H   0  0  0  0  0  0  0  0  0  0  0  0
   -2.7177    4.0553    0.8379 H   0  0  0  0  0  0  0  0  0  0  0  0
   -2.2276    3.3450   -0.6991 H   0  0  0  0  0  0  0  0  0  0  0  0
   -2.0071    2.0106    2.0397 H   0  0  0  0  0  0  0  0  0  0  0  0
 15 16  1  0  0  0  0
 14 18  1  0  0  0  0
 23 25  2  0  0  0  0
  7 34  1  0  0  0  0
 17 18  1  0  0  0  0
 19 20  1  0  0  0  0
  4 37  1  0  0  0  0
  5  6  4  0  0  0  0
  3  4  4  0  0  0  0
 16 19  1  0  0  0  0
 14 15  2  0  0  0  0
 15 23  1  0  0  0  0
  2  7  4  0  0  0  0
  2  3  4  0  0  0  0
 37 39  1  0  0  0  0
 22 23  1  0  0  0  0
 37 38  1  0  0  0  0
  6  7  4  0  0  0  0
  4  5  4  0  0  0  0
 20 22  1  0  0  0  0
 22 31  1  0  0  0  0
 19 24  1  0  0  0  0
  3  8  1  0  0  0  0
  6 11  1  0  0  0  0
  2 13  1  0  0  0  0
  5 10  1  0  0  0  0
 27 29  1  0  0  0  0
 39 40  1  0  0  0  0
 38 44  1  0  0  0  0
  9 34  1  0  0  0  0
 38 43  1  0  0  0  0
 34 36  1  0  0  0  0
 39 42  1  0  0  0  0
 38 45  1  0  0  0  0
 25 33  1  0  0  0  0
 27 30  1  0  0  0  0
 27 28  1  0  0  0  0
 39 41  1  0  0  0  0
 34 35  1  0  0  0  0
 37 46  1  0  0  0  0
 18 27  1  0  0  0  0
 31 32  1  0  0  0  0
 26 31  1  0  0  0  0
 20 21  2  0  0  0  0
 16 17  2  0  0  0  0
  1  2  1  0  0  0  0
  1  3  1  0  0  0  0
  1  5  1  0  0  0  0
  1  6  1  0  0  0  0
  1 12  1  0  0  0  0
  1 25  1  0  0  0  0
  1 31  1  0  0  0  0
M  END
$$$$
