compound_35
  GFN2-xTB geometry (ORCA XTB2, DDCOSMO(water))

 61 69  0  0  0  0  0  0  0  0999 V2000
   -1.7977   -0.2344   -3.1882 C   0  0  0  0  0  0  0  0  0  0  0  0
   -2.0412   -0.4631   -1.8127 C   0  0  0  0  0  0  0  0  0  0  0  0
   -0.9475   -0.9435   -1.0412 C   0  0  0  0  0  0  0  0  0  0  0  0
    0.2888   -1.1751   -1.6710 C   0  0  0  0  0  0  0  0  0  0  0  0
    0.5228   -0.9497   -3.0651 C   0  0  0  0  0  0  0  0  0  0  0  0
   -0.5538   -0.4725   -3.7943 C   0  0  0  0  0  0  0  0  0  0  0  0
    3.9791   -2.6258   -0.8765 H   0  0  0  0  0  0  0  0  0  0  0  0
    5.4736   -2.6608   -2.8486 H   0  0  0  0  0  0  0  0  0  0  0  0
   -2.2162   -1.2356    1.9598 H   0  0  0  0  0  0  0  0  0  0  0  0
    4.8396   -1.8588   -5.2746 O   0  0  0  0  0  0  0  0  0  0  0  0
   -3.2553   -0.2641   -1.1356 C   0  0  0  0  0  0  0  0  0  0  0  0
   -3.2786   -0.5565    0.2079 C   0  0  0  0  0  0  0  0  0  0  0  0
   -2.1576   -1.0253    0.9000 C   0  0  0  0  0  0  0  0  0  0  0  0
   -1.0055   -1.2095    0.2808 N   0  0  0  0  0  0  0  0  0  0  0  0
   -4.1294    0.0990   -1.6516 H   0  0  0  0  0  0  0  0  0  0  0  0
   -4.4204   -0.3881    0.9097 F   0  0  0  0  0  0  0  0  0  0  0  0
    1.8879   -1.3388   -3.2569 C   0  0  0  0  0  0  0  0  0  0  0  0
    2.3523   -1.7744   -1.9786 C   0  0  0  0  0  0  0  0  0  0  0  0
    1.3584   -1.6529   -1.0323 N   0  0  0  0  0  0  0  0  0  0  0  0
    2.3847   -1.0396   -5.3318 H   0  0  0  0  0  0  0  0  0  0  0  0
    3.6446   -2.2589   -1.8319 C   0  0  0  0  0  0  0  0  0  0  0  0
    4.4657   -2.2837   -2.9394 C   0  0  0  0  0  0  0  0  0  0  0  0
    4.0227   -1.8381   -4.1927 C   0  0  0  0  0  0  0  0  0  0  0  0
    2.7260   -1.3670   -4.3619 C   0  0  0  0  0  0  0  0  0  0  0  0
   -0.6844   -0.1405   -5.2329 C   0  0  0  0  0  0  0  0  0  0  0  0
   -1.9842    0.2752   -5.3939 N   0  0  0  0  0  0  0  0  0  0  0  0
   -2.7179    0.2432   -4.2081 C   0  0  0  0  0  0  0  0  0  0  0  0
   -3.8881    0.5675   -4.1269 O   0  0  0  0  0  0  0  0  0  0  0  0
    0.1429   -0.2060   -6.1164 O   0  0  0  0  0  0  0  0  0  0  0  0
    0.0092   -4.5956    0.9473 O   0  0  0  0  0  0  0  0  0  0  0  0
    0.9092   -1.7447    0.9847 Ru  0  0  0  0  0  0  0  0  0  0  0  0
    0.4029   -3.5156    0.9569 C   0  0  0  0  0  0  0  0  0  0  0  0
   -2.3750    0.5645   -6.2785 H   0  0  0  0  0  0  0  0  0  0  0  0
    2.7902   -2.0062    1.6250 N   0  0  0  0  0  0  0  0  0  0  0  0
    2.7979    2.7365    1.2603 C   0  0  0  0  0  0  0  0  0  0  0  0
    6.2356   -5.0092    1.5532 H   0  0  0  0  0  0  0  0  0  0  0  0
    5.2445   -2.8444    0.9559 H   0  0  0  0  0  0  0  0  0  0  0  0
    3.4770   -0.9242    1.7672 C   0  0  0  0  0  0  0  0  0  0  0  0
    1.4601    2.5883    0.8395 C   0  0  0  0  0  0  0  0  0  0  0  0
    4.4904   -0.9384    2.1566 H   0  0  0  0  0  0  0  0  0  0  0  0
    1.5554    0.2128    1.0391 N   0  0  0  0  0  0  0  0  0  0  0  0
    3.4862    1.5482    1.5667 C   0  0  0  0  0  0  0  0  0  0  0  0
    5.7005   -2.2311   -5.0274 H   0  0  0  0  0  0  0  0  0  0  0  0
    0.9003    1.3371    0.7486 C   0  0  0  0  0  0  0  0  0  0  0  0
    0.1689   -1.4145    3.2844 Cl  0  0  0  0  0  0  0  0  0  0  0  0
    3.3874   -3.2346    1.9623 C   0  0  0  0  0  0  0  0  0  0  0  0
    2.6787   -4.1447    2.7455 C   0  0  0  0  0  0  0  0  0  0  0  0
    3.2493   -5.3559    3.0888 C   0  0  0  0  0  0  0  0  0  0  0  0
    4.5250   -5.6756    2.6507 C   0  0  0  0  0  0  0  0  0  0  0  0
    5.2396   -4.7672    1.8880 C   0  0  0  0  0  0  0  0  0  0  0  0
    4.6843   -3.5463    1.5534 C   0  0  0  0  0  0  0  0  0  0  0  0
    1.6960   -3.8743    3.1124 H   0  0  0  0  0  0  0  0  0  0  0  0
    2.6925   -6.0481    3.7008 H   0  0  0  0  0  0  0  0  0  0  0  0
    4.9585   -6.6282    2.9103 H   0  0  0  0  0  0  0  0  0  0  0  0
    2.8439    0.3312    1.4463 C   0  0  0  0  0  0  0  0  0  0  0  0
    4.5110    1.5813    1.8980 H   0  0  0  0  0  0  0  0  0  0  0  0
   -0.1292    1.2310    0.4284 H   0  0  0  0  0  0  0  0  0  0  0  0
    0.8695    3.4543    0.5902 H   0  0  0  0  0  0  0  0  0  0  0  0
    3.3846    3.9302    1.3570 N   0  0  0  0  0  0  0  0  0  0  0  0
    4.3323    3.9990    1.6824 H   0  0  0  0  0  0  0  0  0  0  0  0
    2.8681    4.7667    1.1542 H   0  0  0  0  0  0  0  0  0  0  0  0
  2  3  1  0  0  0  0
  5 17  1  0  0  0  0
  1 27  1  0  0  0  0
 34 38  2  0  0  0  0
 10 23  1  0  0  0  0
 12 16  1  0  0  0  0
 35 59  1  0  0  0  0
  4 19  1  0  0  0  0
 39 44  1  0  0  0  0
  6 25  1  0  0  0  0
 11 12  4  0  0  0  0
 21 22  4  0  0  0  0
 42 55  2  0  0  0  0
 47 48  4  0  0  0  0
 50 51  4  0  0  0  0
 13 14  4  0  0  0  0
 49 50  4  0  0  0  0
  5  6  4  0  0  0  0
 48 49  4  0  0  0  0
 17 24  4  0  0  0  0
 18 21  4  0  0  0  0
 23 24  4  0  0  0  0
 41 55  1  0  0  0  0
 46 47  4  0  0  0  0
 46 51  4  0  0  0  0
 41 44  2  0  0  0  0
 12 13  4  0  0  0  0
 22 23  4  0  0  0  0
  1  6  4  0  0  0  0
  2 11  4  0  0  0  0
  3  4  4  0  0  0  0
 35 42  1  0  0  0  0
 35 39  2  0  0  0  0
 25 26  1  0  0  0  0
  3 14  4  0  0  0  0
 18 19  1  0  0  0  0
  1  2  4  0  0  0  0
 17 18  4  0  0  0  0
  4  5  4  0  0  0  0
 26 27  1  0  0  0  0
 59 61  1  0  0  0  0
 59 60  1  0  0  0  0
  7 21  1  0  0  0  0
 39 58  1  0  0  0  0
 42 56  1  0  0  0  0
 11 15  1  0  0  0  0
 49 54  1  0  0  0  0
 36 50  1  0  0  0  0
 37 51  1  0  0  0  0
 48 53  1  0  0  0  0
 20 24  1  0  0  0  0
  8 22  1  0  0  0  0
 26 33  1  0  0  0  0
 38 55  1  0  0  0  0
 10 43  1  0  0  0  0
  9 13  1  0  0  0  0
 47 52  1  0  0  0  0
 44 57  1  0  0  0  0
 34 46  1  0  0  0  0
 38 40  1  0  0  0  0
 30 32  2  0  0  0  0
 25 29  2  0  0  0  0
 27 28  2  0  0  0  0
 31 32  1  0  0  0  0
 31 14  1  0  0  0  0
 31 19  1  0  0  0  0
 31 34  1  0  0  0  0
 31 41  1  0  0  0  0
 31 45  1  0  0  0  0
M  END
$$$$
