compound_34
  GFN2-xTB geometry (ORCA XTB2, DDCOSMO(water))

 62 70  0  0  0  0  0  0  0  0999 V2000
   -1.8604   -0.9176   -3.4264 C   0  0  0  0  0  0  0  0  0  0  0  0
   -1.9864   -0.6420   -2.0441 C   0  0  0  0  0  0  0  0  0  0  0  0
   -0.8009   -0.7387   -1.2639 C   0  0  0  0  0  0  0  0  0  0  0  0
    0.4094   -1.0678   -1.8949 C   0  0  0  0  0  0  0  0  0  0  0  0
    0.5281   -1.3373   -3.2911 C   0  0  0  0  0  0  0  0  0  0  0  0
   -0.6418   -1.2595   -4.0301 C   0  0  0  0  0  0  0  0  0  0  0  0
    4.3344   -1.6368   -1.0442 H   0  0  0  0  0  0  0  0  0  0  0  0
    5.6889   -2.2243   -3.0203 H   0  0  0  0  0  0  0  0  0  0  0  0
   -1.8334    0.0119    1.7519 H   0  0  0  0  0  0  0  0  0  0  0  0
    4.7925   -2.4877   -5.4839 O   0  0  0  0  0  0  0  0  0  0  0  0
   -3.1659   -0.2888   -1.3696 C   0  0  0  0  0  0  0  0  0  0  0  0
   -3.0668   -0.0573   -0.0173 C   0  0  0  0  0  0  0  0  0  0  0  0
   -1.8652   -0.1771    0.6872 C   0  0  0  0  0  0  0  0  0  0  0  0
   -0.7491   -0.5277    0.0673 N   0  0  0  0  0  0  0  0  0  0  0  0
   -4.1027   -0.2052   -1.8962 H   0  0  0  0  0  0  0  0  0  0  0  0
   -4.1624    0.2962    0.6831 F   0  0  0  0  0  0  0  0  0  0  0  0
    1.9197   -1.6238   -3.4747 C   0  0  0  0  0  0  0  0  0  0  0  0
    2.5142   -1.5059   -2.1802 C   0  0  0  0  0  0  0  0  0  0  0  0
    1.5727   -1.1628   -1.2332 N   0  0  0  0  0  0  0  0  0  0  0  0
    2.2436   -2.0414   -5.5608 H   0  0  0  0  0  0  0  0  0  0  0  0
    3.8781   -1.7222   -2.0203 C   0  0  0  0  0  0  0  0  0  0  0  0
    4.6286   -2.0504   -3.1296 C   0  0  0  0  0  0  0  0  0  0  0  0
    4.0481   -2.1658   -4.3998 C   0  0  0  0  0  0  0  0  0  0  0  0
    2.6862   -1.9510   -4.5809 C   0  0  0  0  0  0  0  0  0  0  0  0
   -0.9006   -1.4930   -5.4706 C   0  0  0  0  0  0  0  0  0  0  0  0
   -2.2458   -1.2725   -5.6384 N   0  0  0  0  0  0  0  0  0  0  0  0
   -2.8945   -0.9252   -4.4538 C   0  0  0  0  0  0  0  0  0  0  0  0
   -4.0839   -0.6910   -4.3760 O   0  0  0  0  0  0  0  0  0  0  0  0
   -0.1284   -1.8116   -6.3496 O   0  0  0  0  0  0  0  0  0  0  0  0
   -0.3462   -3.3193    0.2433 O   0  0  0  0  0  0  0  0  0  0  0  0
    1.1244   -0.9036    0.7837 Ru  0  0  0  0  0  0  0  0  0  0  0  0
    0.6158   -2.8241    0.7818 C   0  0  0  0  0  0  0  0  0  0  0  0
   -2.7226   -1.3635   -6.5236 H   0  0  0  0  0  0  0  0  0  0  0  0
    0.6870   -0.6255    2.7241 N   0  0  0  0  0  0  0  0  0  0  0  0
    1.6479    3.9071    1.6774 C   0  0  0  0  0  0  0  0  0  0  0  0
    1.7559   -3.1973    6.3283 H   0  0  0  0  0  0  0  0  0  0  0  0
    2.1700   -1.3000    4.8059 H   0  0  0  0  0  0  0  0  0  0  0  0
    0.8838    0.5527    3.2057 C   0  0  0  0  0  0  0  0  0  0  0  0
    1.7466    3.4482    0.3448 C   0  0  0  0  0  0  0  0  0  0  0  0
    0.8088    0.7519    4.2705 H   0  0  0  0  0  0  0  0  0  0  0  0
    1.3053    1.2055    0.9955 N   0  0  0  0  0  0  0  0  0  0  0  0
    1.3543    2.9364    2.6556 C   0  0  0  0  0  0  0  0  0  0  0  0
    5.7184   -2.6106   -5.2222 H   0  0  0  0  0  0  0  0  0  0  0  0
    1.5678    2.1173    0.0595 C   0  0  0  0  0  0  0  0  0  0  0  0
    3.3834   -1.2962    1.5181 Cl  0  0  0  0  0  0  0  0  0  0  0  0
    0.4434   -1.6932    3.6024 C   0  0  0  0  0  0  0  0  0  0  0  0
   -0.6572   -2.5249    3.3978 C   0  0  0  0  0  0  0  0  0  0  0  0
   -0.8826   -3.5864    4.2538 C   0  0  0  0  0  0  0  0  0  0  0  0
   -0.0158   -3.8332    5.3073 C   0  0  0  0  0  0  0  0  0  0  0  0
    1.0763   -3.0064    5.5128 C   0  0  0  0  0  0  0  0  0  0  0  0
    1.3038   -1.9312    4.6736 C   0  0  0  0  0  0  0  0  0  0  0  0
   -1.3355   -2.3252    2.5812 H   0  0  0  0  0  0  0  0  0  0  0  0
   -1.7380   -4.2237    4.0938 H   0  0  0  0  0  0  0  0  0  0  0  0
   -0.1906   -4.6703    5.9643 H   0  0  0  0  0  0  0  0  0  0  0  0
    1.1922    1.6173    2.2807 C   0  0  0  0  0  0  0  0  0  0  0  0
    1.2574    3.2152    3.6919 H   0  0  0  0  0  0  0  0  0  0  0  0
    1.6409    1.7517   -0.9582 H   0  0  0  0  0  0  0  0  0  0  0  0
    1.9664    4.1403   -0.4509 H   0  0  0  0  0  0  0  0  0  0  0  0
    1.8103    5.1910    1.9920 N   0  0  0  0  0  0  0  0  0  0  0  0
    1.3738   -3.5241    1.2337 H   0  0  0  0  0  0  0  0  0  0  0  0
    1.7360    5.4907    2.9480 H   0  0  0  0  0  0  0  0  0  0  0  0
    2.0223    5.8635    1.2770 H   0  0  0  0  0  0  0  0  0  0  0  0
  2  3  1  0  0  0  0
  5 17  1  0  0  0  0
  1 27  1  0  0  0  0
 34 38  2  0  0  0  0
 10 23  1  0  0  0  0
 12 16  1  0  0  0  0
  4 19  1  0  0  0  0
  6 25  1  0  0  0  0
 11 12  4  0  0  0  0
 21 22  4  0  0  0  0
 35 42  1  0  0  0  0
 47 48  4  0  0  0  0
 50 51  4  0  0  0  0
 13 14  4  0  0  0  0
 49 50  4  0  0  0  0
  5  6  4  0  0  0  0
 48 49  4  0  0  0  0
 39 44  1  0  0  0  0
 17 24  4  0  0  0  0
 18 21  4  0  0  0  0
 35 39  2  0  0  0  0
 41 55  1  0  0  0  0
 41 44  2  0  0  0  0
 23 24  4  0  0  0  0
 46 47  4  0  0  0  0
 42 55  2  0  0  0  0
 46 51  4  0  0  0  0
 12 13  4  0  0  0  0
 22 23  4  0  0  0  0
  1  6  4  0  0  0  0
  2 11  4  0  0  0  0
  3  4  4  0  0  0  0
 25 26  1  0  0  0  0
  3 14  4  0  0  0  0
 18 19  1  0  0  0  0
  1  2  4  0  0  0  0
 17 18  4  0  0  0  0
  4  5  4  0  0  0  0
 26 27  1  0  0  0  0
  7 21  1  0  0  0  0
 39 58  1  0  0  0  0
 42 56  1  0  0  0  0
 11 15  1  0  0  0  0
 49 54  1  0  0  0  0
 36 50  1  0  0  0  0
 38 55  1  0  0  0  0
 48 53  1  0  0  0  0
 37 51  1  0  0  0  0
 20 24  1  0  0  0  0
  8 22  1  0  0  0  0
 26 33  1  0  0  0  0
 10 43  1  0  0  0  0
  9 13  1  0  0  0  0
 34 46  1  0  0  0  0
 44 57  1  0  0  0  0
 47 52  1  0  0  0  0
 38 40  1  0  0  0  0
 30 32  2  0  0  0  0
 25 29  2  0  0  0  0
 27 28  2  0  0  0  0
 31 32  1  0  0  0  0
 31 14  1  0  0  0  0
 31 19  1  0  0  0  0
 31 34  1  0  0  0  0
 31 41  1  0  0  0  0
 31 45  1  0  0  0  0
 35 59  1  0  0  0  0
 59 61  1  0  0  0  0
 59 62  1  0  0  0  0
 32 60  1  0  0  0  0
M  END
$$$$
