compound_36
  GFN2-xTB geometry (ORCA XTB2, DDCOSMO(water))

 42 52  0  0  0  0  0  0  0  0999 V2000
    2.1411   -2.8261   -3.8006 Ru  0  0  0  0  0  0  0  0  0  0  0  0
    3.4658   -1.8837   -2.2933 C   0  0  0  0  0  0  0  0  0  0  0  0
    3.1994   -4.1697   -5.2247 C   0  0  0  0  0  0  0  0  0  0  0  0
    2.4651   -2.6367   -1.6211 C   0  0  0  0  0  0  0  0  0  0  0  0
    2.8221   -0.8550   -3.0396 C   0  0  0  0  0  0  0  0  0  0  0  0
    2.5518   -3.1420   -5.9660 C   0  0  0  0  0  0  0  0  0  0  0  0
    2.1975   -4.9196   -4.5454 C   0  0  0  0  0  0  0  0  0  0  0  0
    1.1901   -2.0594   -1.9365 C   0  0  0  0  0  0  0  0  0  0  0  0
    1.4224   -0.9652   -2.8307 C   0  0  0  0  0  0  0  0  0  0  0  0
    1.1507   -3.2575   -5.7467 C   0  0  0  0  0  0  0  0  0  0  0  0
    0.9312   -4.3566   -4.8710 C   0  0  0  0  0  0  0  0  0  0  0  0
    4.5329   -1.9818   -2.1460 H   0  0  0  0  0  0  0  0  0  0  0  0
    4.2479   -4.4280   -5.2870 H   0  0  0  0  0  0  0  0  0  0  0  0
    2.6438   -3.3889   -0.8651 H   0  0  0  0  0  0  0  0  0  0  0  0
    3.3189   -0.0454   -3.5564 H   0  0  0  0  0  0  0  0  0  0  0  0
    3.0260   -2.4861   -6.6835 H   0  0  0  0  0  0  0  0  0  0  0  0
    2.3576   -5.8455   -4.0097 H   0  0  0  0  0  0  0  0  0  0  0  0
   -0.0327   -4.7764   -4.6158 H   0  0  0  0  0  0  0  0  0  0  0  0
    0.6652   -0.2605   -3.1448 H   0  0  0  0  0  0  0  0  0  0  0  0
    0.3820   -2.7028   -6.2672 H   0  0  0  0  0  0  0  0  0  0  0  0
   -0.0748   -2.3957   -1.3227 C   0  0  0  0  0  0  0  0  0  0  0  0
   -1.2219   -1.6945   -1.5504 N   0  0  0  0  0  0  0  0  0  0  0  0
   -2.1665   -2.1868   -0.8483 N   0  0  0  0  0  0  0  0  0  0  0  0
   -1.6968   -3.2196   -0.1388 N   0  0  0  0  0  0  0  0  0  0  0  0
   -0.3784   -3.3882   -0.4068 C   0  0  0  0  0  0  0  0  0  0  0  0
   -2.5220   -3.9415    0.7300 C   0  0  0  0  0  0  0  0  0  0  0  0
   -3.7943   -3.4422    1.0044 C   0  0  0  0  0  0  0  0  0  0  0  0
   -4.6298   -4.1343    1.8602 C   0  0  0  0  0  0  0  0  0  0  0  0
   -4.1864   -5.3106    2.4325 C   0  0  0  0  0  0  0  0  0  0  0  0
   -2.9286   -5.8154    2.1689 C   0  0  0  0  0  0  0  0  0  0  0  0
   -2.0873   -5.1322    1.3098 C   0  0  0  0  0  0  0  0  0  0  0  0
   -4.1028   -2.5209    0.5391 H   0  0  0  0  0  0  0  0  0  0  0  0
   -5.6164   -3.7743    2.1020 H   0  0  0  0  0  0  0  0  0  0  0  0
   -5.2532   -6.2054    3.5367 S   0  0  0  0  0  0  0  0  0  0  0  0
   -2.6241   -6.7327    2.6442 H   0  0  0  0  0  0  0  0  0  0  0  0
   -1.1108   -5.5305    1.0930 H   0  0  0  0  0  0  0  0  0  0  0  0
   -6.3644   -5.3559    3.9140 O   0  0  0  0  0  0  0  0  0  0  0  0
   -4.4726   -6.7575    4.6205 O   0  0  0  0  0  0  0  0  0  0  0  0
   -5.7818   -7.4796    2.6134 N   0  0  0  0  0  0  0  0  0  0  0  0
    0.2328   -4.1393    0.0400 H   0  0  0  0  0  0  0  0  0  0  0  0
   -5.8344   -8.3299    3.1497 H   0  0  0  0  0  0  0  0  0  0  0  0
   -6.6557   -7.2674    2.1595 H   0  0  0  0  0  0  0  0  0  0  0  0
  8 21  1  0  0  0  0
 34 39  1  0  0  0  0
 23 24  1  0  0  0  0
 29 30  4  0  0  0  0
 28 29  4  0  0  0  0
 27 28  4  0  0  0  0
 30 31  4  0  0  0  0
 24 25  1  0  0  0  0
 26 31  4  0  0  0  0
 26 27  4  0  0  0  0
 21 22  1  0  0  0  0
 29 34  1  0  0  0  0
  5  9  4  0  0  0  0
  2  4  4  0  0  0  0
 10 11  4  0  0  0  0
 25 40  1  0  0  0  0
  6 10  4  0  0  0  0
  3  6  4  0  0  0  0
  7 11  4  0  0  0  0
  3  7  4  0  0  0  0
  2  5  4  0  0  0  0
  8  9  4  0  0  0  0
  4  8  4  0  0  0  0
 31 36  1  0  0  0  0
 30 35  1  0  0  0  0
 39 41  1  0  0  0  0
 27 32  1  0  0  0  0
 24 26  1  0  0  0  0
 28 33  1  0  0  0  0
 39 42  1  0  0  0  0
  9 19  1  0  0  0  0
  4 14  1  0  0  0  0
  5 15  1  0  0  0  0
 10 20  1  0  0  0  0
  6 16  1  0  0  0  0
  3 13  1  0  0  0  0
  7 17  1  0  0  0  0
  2 12  1  0  0  0  0
 11 18  1  0  0  0  0
 34 38  2  0  0  0  0
 34 37  2  0  0  0  0
 21 25  2  0  0  0  0
 22 23  2  0  0  0  0
  1  3  1  0  0  0  0
  1  7  1  0  0  0  0
  1 11  1  0  0  0  0
  1  6  1  0  0  0  0
  1 10  1  0  0  0  0
  1  4  1  0  0  0  0
  1  5  1  0  0  0  0
  1  9  1  0  0  0  0
  1  2  1  0  0  0  0
M  END
$$$$
