compound_17
  GFN2-xTB geometry (ORCA XTB2, DDCOSMO(water))

 59 67  0  0  0  0  0  0  0  0999 V2000
   -0.9307   -0.6303   -2.1003 C   0  0  0  0  0  0  0  0  0  0  0  0
   -1.2813   -0.7749   -0.7233 C   0  0  0  0  0  0  0  0  0  0  0  0
   -0.3563   -1.4722    0.0963 C   0  0  0  0  0  0  0  0  0  0  0  0
    0.8287   -1.9805   -0.4756 C   0  0  0  0  0  0  0  0  0  0  0  0
    1.1670   -1.8471   -1.8575 C   0  0  0  0  0  0  0  0  0  0  0  0
    0.2561   -1.1562   -2.6395 C   0  0  0  0  0  0  0  0  0  0  0  0
    4.1347   -4.1108    0.5322 H   0  0  0  0  0  0  0  0  0  0  0  0
   -3.2678    0.5165   -1.6308 H   0  0  0  0  0  0  0  0  0  0  0  0
   -1.7609   -1.4685    3.0456 H   0  0  0  0  0  0  0  0  0  0  0  0
    5.1591   -3.6422   -3.5883 H   0  0  0  0  0  0  0  0  0  0  0  0
   -2.4566   -0.3052   -0.0718 C   0  0  0  0  0  0  0  0  0  0  0  0
   -2.5975   -0.5670    1.2906 C   0  0  0  0  0  0  0  0  0  0  0  0
   -1.6287   -1.2634    1.9919 C   0  0  0  0  0  0  0  0  0  0  0  0
   -0.5246   -1.7065    1.4156 N   0  0  0  0  0  0  0  0  0  0  0  0
    3.9496   -1.2159    1.1252 H   0  0  0  0  0  0  0  0  0  0  0  0
   -3.4882   -0.2162    1.7838 H   0  0  0  0  0  0  0  0  0  0  0  0
    2.4243   -2.5182   -1.9839 C   0  0  0  0  0  0  0  0  0  0  0  0
    2.7347   -3.0012   -0.6775 C   0  0  0  0  0  0  0  0  0  0  0  0
    1.7532   -2.6468    0.2175 N   0  0  0  0  0  0  0  0  0  0  0  0
    3.0689   -2.3984   -4.0277 H   0  0  0  0  0  0  0  0  0  0  0  0
    3.9013   -3.7129   -0.4437 C   0  0  0  0  0  0  0  0  0  0  0  0
    4.7683   -3.9304   -1.5013 C   0  0  0  0  0  0  0  0  0  0  0  0
    4.4660   -3.4549   -2.7819 C   0  0  0  0  0  0  0  0  0  0  0  0
    3.3011   -2.7591   -3.0362 C   0  0  0  0  0  0  0  0  0  0  0  0
    0.2942   -0.8332   -4.0788 C   0  0  0  0  0  0  0  0  0  0  0  0
   -0.8653   -0.1318   -4.3229 N   0  0  0  0  0  0  0  0  0  0  0  0
   -1.6386    0.0226   -3.1850 C   0  0  0  0  0  0  0  0  0  0  0  0
   -2.7115    0.6207   -3.1856 O   0  0  0  0  0  0  0  0  0  0  0  0
    1.1360   -1.0981   -4.9116 O   0  0  0  0  0  0  0  0  0  0  0  0
   -1.1321    0.2298   -5.2264 H   0  0  0  0  0  0  0  0  0  0  0  0
    1.1383   -2.7259    2.2155 Ru  0  0  0  0  0  0  0  0  0  0  0  0
    0.3414   -4.3738    1.9337 C   0  0  0  0  0  0  0  0  0  0  0  0
   -0.1582   -5.3785    1.7029 O   0  0  0  0  0  0  0  0  0  0  0  0
    2.1714   -0.6017    2.5044 S   0  0  0  0  0  0  0  0  0  0  0  0
    2.1612   -0.3298    4.3366 C   0  0  0  0  0  0  0  0  0  0  0  0
    0.9436   -0.9180    5.0162 C   0  0  0  0  0  0  0  0  0  0  0  0
    0.3685   -2.5691    4.4374 S   0  0  0  0  0  0  0  0  0  0  0  0
    1.4504   -3.7858    5.2829 C   0  0  0  0  0  0  0  0  0  0  0  0
    2.9033   -3.7867    4.8717 C   0  0  0  0  0  0  0  0  0  0  0  0
    3.1711   -3.7003    3.0341 S   0  0  0  0  0  0  0  0  0  0  0  0
    4.3969   -2.3198    2.9352 C   0  0  0  0  0  0  0  0  0  0  0  0
    3.9134   -1.0816    2.2083 C   0  0  0  0  0  0  0  0  0  0  0  0
    4.5287   -0.2221    2.4774 H   0  0  0  0  0  0  0  0  0  0  0  0
    2.1581    0.7526    4.4691 H   0  0  0  0  0  0  0  0  0  0  0  0
    3.0895   -0.7282    4.7335 H   0  0  0  0  0  0  0  0  0  0  0  0
    0.0683   -0.2902    4.8460 H   0  0  0  0  0  0  0  0  0  0  0  0
    1.1091   -1.0087    6.0892 H   0  0  0  0  0  0  0  0  0  0  0  0
    0.9682   -4.7367    5.0464 H   0  0  0  0  0  0  0  0  0  0  0  0
    1.3604   -3.5969    6.3528 H   0  0  0  0  0  0  0  0  0  0  0  0
    3.3656   -4.7259    5.1759 H   0  0  0  0  0  0  0  0  0  0  0  0
    3.4419   -2.9638    5.3335 H   0  0  0  0  0  0  0  0  0  0  0  0
    4.7169   -2.0972    3.9497 H   0  0  0  0  0  0  0  0  0  0  0  0
    5.2462   -2.7403    2.3953 H   0  0  0  0  0  0  0  0  0  0  0  0
   -3.4366    0.3656   -0.6661 O   0  0  0  0  0  0  0  0  0  0  0  0
    6.0507   -4.6868   -1.2460 C   0  0  0  0  0  0  0  0  0  0  0  0
    6.5452   -4.4968    0.0580 O   0  0  0  0  0  0  0  0  0  0  0  0
    6.7704   -3.5612    0.1577 H   0  0  0  0  0  0  0  0  0  0  0  0
    6.8036   -4.4131   -1.9966 H   0  0  0  0  0  0  0  0  0  0  0  0
    5.8620   -5.7621   -1.3389 H   0  0  0  0  0  0  0  0  0  0  0  0
  1  2  1  0  0  0  0
 11 54  1  0  0  0  0
  5 17  1  0  0  0  0
  1 27  1  0  0  0  0
  6 25  1  0  0  0  0
  4 19  1  0  0  0  0
 23 24  4  0  0  0  0
 12 13  1  0  0  0  0
 21 22  4  0  0  0  0
 13 14  2  0  0  0  0
  5  6  1  0  0  0  0
 18 21  4  0  0  0  0
  3 14  1  0  0  0  0
 17 24  4  0  0  0  0
 11 12  2  0  0  0  0
 22 23  4  0  0  0  0
 38 39  1  0  0  0  0
 22 55  1  0  0  0  0
 35 36  1  0  0  0  0
 41 42  1  0  0  0  0
 55 56  1  0  0  0  0
  1  6  2  0  0  0  0
  3  4  1  0  0  0  0
 18 19  1  0  0  0  0
 25 26  1  0  0  0  0
  2  3  2  0  0  0  0
 26 27  1  0  0  0  0
  2 11  1  0  0  0  0
 17 18  4  0  0  0  0
  4  5  2  0  0  0  0
 12 16  1  0  0  0  0
 56 57  1  0  0  0  0
  7 21  1  0  0  0  0
 26 30  1  0  0  0  0
 10 23  1  0  0  0  0
 20 24  1  0  0  0  0
  9 13  1  0  0  0  0
 34 42  1  0  0  0  0
 37 38  1  0  0  0  0
 35 45  1  0  0  0  0
 39 51  1  0  0  0  0
 41 52  1  0  0  0  0
 36 37  1  0  0  0  0
 36 47  1  0  0  0  0
 39 50  1  0  0  0  0
 38 49  1  0  0  0  0
 35 44  1  0  0  0  0
 36 46  1  0  0  0  0
 41 53  1  0  0  0  0
 42 43  1  0  0  0  0
 15 42  1  0  0  0  0
 38 48  1  0  0  0  0
 40 41  1  0  0  0  0
 34 35  1  0  0  0  0
 55 59  1  0  0  0  0
 55 58  1  0  0  0  0
 39 40  1  0  0  0  0
  8 54  1  0  0  0  0
 32 33  2  0  0  0  0
 25 29  2  0  0  0  0
 27 28  2  0  0  0  0
 31 32  1  0  0  0  0
 31 40  1  0  0  0  0
 31 14  1  0  0  0  0
 31 19  1  0  0  0  0
 31 34  1  0  0  0  0
 31 37  1  0  0  0  0
M  END
$$$$
