compound_20
  GFN2-xTB geometry (ORCA XTB2, DDCOSMO(water))

 94104  0  0  0  0  0  0  0  0999 V2000
   -2.3838   -3.0009   -0.3859 C   0  0  0  0  0  0  0  0  0  0  0  0
   -0.7468   -1.3365   -1.0777 C   0  0  0  0  0  0  0  0  0  0  0  0
   -2.0888   -1.6760   -0.8211 C   0  0  0  0  0  0  0  0  0  0  0  0
   -1.4050   -3.9276   -0.2374 C   0  0  0  0  0  0  0  0  0  0  0  0
    2.2877   -4.1280   -0.6979 C   0  0  0  0  0  0  0  0  0  0  0  0
    2.5190   -2.8032   -1.0740 C   0  0  0  0  0  0  0  0  0  0  0  0
    1.5505   -1.9087   -1.1794 N   0  0  0  0  0  0  0  0  0  0  0  0
    0.2834   -2.3097   -0.9258 C   0  0  0  0  0  0  0  0  0  0  0  0
   -0.0441   -3.6189   -0.5186 C   0  0  0  0  0  0  0  0  0  0  0  0
    1.0080   -4.5424   -0.4069 C   0  0  0  0  0  0  0  0  0  0  0  0
   -3.0577   -0.6787   -1.0095 C   0  0  0  0  0  0  0  0  0  0  0  0
    3.1183   -4.8118   -0.6334 H   0  0  0  0  0  0  0  0  0  0  0  0
    3.5250   -2.4728   -1.2976 H   0  0  0  0  0  0  0  0  0  0  0  0
   -3.4132   -3.2447   -0.1733 H   0  0  0  0  0  0  0  0  0  0  0  0
   -0.3686   -0.0936   -1.4519 N   0  0  0  0  0  0  0  0  0  0  0  0
    0.8007   -5.5560   -0.1031 H   0  0  0  0  0  0  0  0  0  0  0  0
   -1.3060    0.8242   -1.6059 C   0  0  0  0  0  0  0  0  0  0  0  0
   -2.6755    0.5842   -1.4217 C   0  0  0  0  0  0  0  0  0  0  0  0
   -1.6383   -4.9264    0.0959 H   0  0  0  0  0  0  0  0  0  0  0  0
   -4.0975   -0.9076   -0.8323 H   0  0  0  0  0  0  0  0  0  0  0  0
    1.6609    0.0968   -1.5303 Ru  0  0  0  0  0  0  0  0  0  0  0  0
   -0.9768    1.8185   -1.8711 H   0  0  0  0  0  0  0  0  0  0  0  0
    1.2535    1.1788   -4.1301 C   0  0  0  0  0  0  0  0  0  0  0  0
    1.0676    1.2492   -5.5094 C   0  0  0  0  0  0  0  0  0  0  0  0
    1.2382    0.1098   -6.2763 C   0  0  0  0  0  0  0  0  0  0  0  0
    1.6146   -1.0686   -5.6457 C   0  0  0  0  0  0  0  0  0  0  0  0
    1.7573   -1.0709   -4.2693 C   0  0  0  0  0  0  0  0  0  0  0  0
    1.5610    0.0122   -3.5223 N   0  0  0  0  0  0  0  0  0  0  0  0
    0.8025    2.1796   -5.9812 H   0  0  0  0  0  0  0  0  0  0  0  0
    1.0964    0.1436   -7.3447 H   0  0  0  0  0  0  0  0  0  0  0  0
    1.7857   -1.9690   -6.2120 H   0  0  0  0  0  0  0  0  0  0  0  0
    2.0529   -1.9700   -3.7456 H   0  0  0  0  0  0  0  0  0  0  0  0
    1.2247    2.3346   -3.2308 C   0  0  0  0  0  0  0  0  0  0  0  0
    0.9378    3.6367   -3.6346 C   0  0  0  0  0  0  0  0  0  0  0  0
    1.0092    4.6658   -2.7122 C   0  0  0  0  0  0  0  0  0  0  0  0
    1.3798    4.3661   -1.4083 C   0  0  0  0  0  0  0  0  0  0  0  0
    1.6355    3.0483   -1.0727 C   0  0  0  0  0  0  0  0  0  0  0  0
    1.5510    2.0500   -1.9490 N   0  0  0  0  0  0  0  0  0  0  0  0
    0.6574    3.8452   -4.6528 H   0  0  0  0  0  0  0  0  0  0  0  0
    0.7854    5.6792   -3.0039 H   0  0  0  0  0  0  0  0  0  0  0  0
    1.4615    5.1394   -0.6628 H   0  0  0  0  0  0  0  0  0  0  0  0
    1.9125    2.7898   -0.0593 H   0  0  0  0  0  0  0  0  0  0  0  0
   -3.6811    1.6849   -1.5988 C   0  0  0  0  0  0  0  0  0  0  0  0
   -3.4512    2.6360   -2.7796 C   0  0  0  0  0  0  0  0  0  0  0  0
    3.1561    0.2842    0.9037 C   0  0  0  0  0  0  0  0  0  0  0  0
    3.4620    0.3169    2.2628 C   0  0  0  0  0  0  0  0  0  0  0  0
    2.4375    0.3532    3.1915 C   0  0  0  0  0  0  0  0  0  0  0  0
    1.1275    0.3668    2.7341 C   0  0  0  0  0  0  0  0  0  0  0  0
    0.8974    0.3275    1.3706 C   0  0  0  0  0  0  0  0  0  0  0  0
    1.8764    0.2778    0.4702 N   0  0  0  0  0  0  0  0  0  0  0  0
    4.4856    0.3125    2.5949 H   0  0  0  0  0  0  0  0  0  0  0  0
    2.6552    0.3763    4.2472 H   0  0  0  0  0  0  0  0  0  0  0  0
    0.2983    0.4064    3.4208 H   0  0  0  0  0  0  0  0  0  0  0  0
   -0.1174    0.3465    0.9970 H   0  0  0  0  0  0  0  0  0  0  0  0
    4.1620    0.2743   -0.1611 C   0  0  0  0  0  0  0  0  0  0  0  0
    5.5344    0.3561    0.0679 C   0  0  0  0  0  0  0  0  0  0  0  0
    6.4067    0.3588   -1.0055 C   0  0  0  0  0  0  0  0  0  0  0  0
    5.8804    0.2797   -2.2873 C   0  0  0  0  0  0  0  0  0  0  0  0
    4.5083    0.2005   -2.4412 C   0  0  0  0  0  0  0  0  0  0  0  0
    3.6604    0.1964   -1.4134 N   0  0  0  0  0  0  0  0  0  0  0  0
    5.9197    0.4199    1.0707 H   0  0  0  0  0  0  0  0  0  0  0  0
    7.4710    0.4222   -0.8464 H   0  0  0  0  0  0  0  0  0  0  0  0
    6.5224    0.2795   -3.1524 H   0  0  0  0  0  0  0  0  0  0  0  0
    4.0805    0.1313   -3.4324 H   0  0  0  0  0  0  0  0  0  0  0  0
   -3.7797    2.0460   -4.1530 C   0  0  0  0  0  0  0  0  0  0  0  0
   -2.9594    0.8097   -4.5207 C   0  0  0  0  0  0  0  0  0  0  0  0
   -3.6458   -0.3262   -4.0202 O   0  0  0  0  0  0  0  0  0  0  0  0
   -2.9811   -1.5224   -3.9211 C   0  0  0  0  0  0  0  0  0  0  0  0
   -3.7287   -2.6015   -3.4552 C   0  0  0  0  0  0  0  0  0  0  0  0
   -3.1485   -3.8319   -3.2377 C   0  0  0  0  0  0  0  0  0  0  0  0
   -1.7812   -4.0426   -3.4714 C   0  0  0  0  0  0  0  0  0  0  0  0
   -1.0606   -2.9655   -3.9978 C   0  0  0  0  0  0  0  0  0  0  0  0
   -1.6442   -1.7325   -4.2227 C   0  0  0  0  0  0  0  0  0  0  0  0
   -3.6749    2.2835   -0.6821 H   0  0  0  0  0  0  0  0  0  0  0  0
   -4.6751    1.2422   -1.6885 H   0  0  0  0  0  0  0  0  0  0  0  0
   -4.1017    3.5010   -2.6350 H   0  0  0  0  0  0  0  0  0  0  0  0
   -2.4255    3.0020   -2.7856 H   0  0  0  0  0  0  0  0  0  0  0  0
   -4.8352    1.7675   -4.1964 H   0  0  0  0  0  0  0  0  0  0  0  0
   -3.6107    2.8157   -4.9069 H   0  0  0  0  0  0  0  0  0  0  0  0
   -2.8688    0.7195   -5.6124 H   0  0  0  0  0  0  0  0  0  0  0  0
   -1.9572    0.8798   -4.0863 H   0  0  0  0  0  0  0  0  0  0  0  0
   -1.1567   -5.2288   -3.1469 N   0  0  0  0  0  0  0  0  0  0  0  0
   -1.9616   -6.3824   -2.8175 C   0  0  0  0  0  0  0  0  0  0  0  0
   -1.3088   -7.1968   -2.5119 H   0  0  0  0  0  0  0  0  0  0  0  0
   -2.5726   -6.7301   -3.6609 H   0  0  0  0  0  0  0  0  0  0  0  0
   -2.6237   -6.1533   -1.9835 H   0  0  0  0  0  0  0  0  0  0  0  0
    0.1491   -5.5019   -3.7095 C   0  0  0  0  0  0  0  0  0  0  0  0
    0.8754   -4.7847   -3.3296 H   0  0  0  0  0  0  0  0  0  0  0  0
    0.4667   -6.4949   -3.4027 H   0  0  0  0  0  0  0  0  0  0  0  0
    0.1454   -5.4675   -4.8049 H   0  0  0  0  0  0  0  0  0  0  0  0
   -1.0472   -0.9472   -4.6557 H   0  0  0  0  0  0  0  0  0  0  0  0
   -0.0268   -3.0858   -4.2630 H   0  0  0  0  0  0  0  0  0  0  0  0
   -3.7816   -4.6325   -2.8937 H   0  0  0  0  0  0  0  0  0  0  0  0
   -4.7827   -2.4543   -3.2674 H   0  0  0  0  0  0  0  0  0  0  0  0
  4  9  1  0  0  0  0
  1  3  1  0  0  0  0
 67 68  1  0  0  0  0
  5 10  2  0  0  0  0
 69 70  4  0  0  0  0
 11 18  2  0  0  0  0
 72 73  4  0  0  0  0
 58 59  1  0  0  0  0
 56 57  1  0  0  0  0
 46 47  1  0  0  0  0
 48 49  1  0  0  0  0
 36 37  1  0  0  0  0
 34 35  1  0  0  0  0
 26 27  1  0  0  0  0
 15 17  2  0  0  0  0
 24 25  1  0  0  0  0
  6  7  2  0  0  0  0
 68 73  4  0  0  0  0
 23 28  1  0  0  0  0
 47 48  2  0  0  0  0
 45 50  1  0  0  0  0
 57 58  2  0  0  0  0
 55 60  1  0  0  0  0
 35 36  2  0  0  0  0
 25 26  2  0  0  0  0
  2 15  1  0  0  0  0
 33 38  1  0  0  0  0
  7  8  1  0  0  0  0
 18 43  1  0  0  0  0
 68 69  4  0  0  0  0
 33 34  2  0  0  0  0
 45 46  2  0  0  0  0
 23 24  2  0  0  0  0
 27 28  2  0  0  0  0
 55 56  2  0  0  0  0
 37 38  2  0  0  0  0
 49 50  2  0  0  0  0
 59 60  2  0  0  0  0
  5  6  1  0  0  0  0
 71 72  4  0  0  0  0
 17 18  1  0  0  0  0
 70 71  4  0  0  0  0
  3 11  1  0  0  0  0
  9 10  1  0  0  0  0
  2  3  2  0  0  0  0
  8  9  2  0  0  0  0
 66 67  1  0  0  0  0
 65 66  1  0  0  0  0
 71 82  1  0  0  0  0
 44 65  1  0  0  0  0
 43 44  1  0  0  0  0
  2  8  1  0  0  0  0
 72 92  1  0  0  0  0
 46 51  1  0  0  0  0
 56 61  1  0  0  0  0
 24 29  1  0  0  0  0
 34 39  1  0  0  0  0
 70 93  1  0  0  0  0
 36 41  1  0  0  0  0
 73 91  1  0  0  0  0
 58 63  1  0  0  0  0
 48 53  1  0  0  0  0
 26 31  1  0  0  0  0
  5 12  1  0  0  0  0
 57 62  1  0  0  0  0
 35 40  1  0  0  0  0
 47 52  1  0  0  0  0
 25 30  1  0  0  0  0
 10 16  1  0  0  0  0
  4 19  1  0  0  0  0
  1 14  1  0  0  0  0
 11 20  1  0  0  0  0
 17 22  1  0  0  0  0
 69 94  1  0  0  0  0
 49 54  1  0  0  0  0
 27 32  1  0  0  0  0
 59 64  1  0  0  0  0
 37 42  1  0  0  0  0
  6 13  1  0  0  0  0
 87 89  1  0  0  0  0
 83 84  1  0  0  0  0
 44 77  1  0  0  0  0
 87 88  1  0  0  0  0
 83 86  1  0  0  0  0
 65 79  1  0  0  0  0
 43 75  1  0  0  0  0
 44 76  1  0  0  0  0
 65 78  1  0  0  0  0
 66 81  1  0  0  0  0
 43 74  1  0  0  0  0
 87 90  1  0  0  0  0
 83 85  1  0  0  0  0
 23 33  1  0  0  0  0
 45 55  1  0  0  0  0
 66 80  1  0  0  0  0
 82 83  1  0  0  0  0
 82 87  1  0  0  0  0
  1  4  2  0  0  0  0
 21 28  1  0  0  0  0
 21  7  1  0  0  0  0
 21 15  1  0  0  0  0
 21 38  1  0  0  0  0
 21 50  1  0  0  0  0
 21 60  1  0  0  0  0
M  END
$$$$
