compound_134
  GFN2-xTB geometry (ORCA XTB2, DDCOSMO(water))

 35 43  0  0  0  0  0  0  0  0999 V2000
   20.1654   -2.9402    1.4654 Ru  0  0  0  0  0  0  0  0  0  0  0  0
   20.1969    1.9458    2.1436 C   0  0  0  0  0  0  0  0  0  0  0  0
   19.0580    1.2172    2.3502 N   0  0  0  0  0  0  0  0  0  0  0  0
   18.9406   -0.1439    2.2295 C   0  0  0  0  0  0  0  0  0  0  0  0
   19.9890   -0.9256    1.8605 C   0  0  0  0  0  0  0  0  0  0  0  0
   17.1663   -3.5970    1.3935 H   0  0  0  0  0  0  0  0  0  0  0  0
   23.6949    1.0029    1.1564 C   0  0  0  0  0  0  0  0  0  0  0  0
   22.6159    1.7552    1.5137 C   0  0  0  0  0  0  0  0  0  0  0  0
   21.3547    1.1616    1.7579 C   0  0  0  0  0  0  0  0  0  0  0  0
   21.2108   -0.2203    1.6313 C   0  0  0  0  0  0  0  0  0  0  0  0
   22.3337   -1.0058    1.2565 C   0  0  0  0  0  0  0  0  0  0  0  0
   25.1921   -3.2900    0.2703 H   0  0  0  0  0  0  0  0  0  0  0  0
   17.9615   -0.5381    2.4562 H   0  0  0  0  0  0  0  0  0  0  0  0
   25.6236   -0.8432    0.4542 H   0  0  0  0  0  0  0  0  0  0  0  0
   22.9404   -4.1766    0.7488 H   0  0  0  0  0  0  0  0  0  0  0  0
   18.9970   -4.8152    0.9829 C   0  0  0  0  0  0  0  0  0  0  0  0
   18.1277   -3.6824    0.9053 C   0  0  0  0  0  0  0  0  0  0  0  0
   22.1134   -2.3396    1.1488 N   0  0  0  0  0  0  0  0  0  0  0  0
   18.5917   -2.8621   -0.1600 C   0  0  0  0  0  0  0  0  0  0  0  0
   20.0131   -4.6605    0.0169 C   0  0  0  0  0  0  0  0  0  0  0  0
   23.1299   -3.1126    0.8073 C   0  0  0  0  0  0  0  0  0  0  0  0
   24.4067   -2.6061    0.5466 C   0  0  0  0  0  0  0  0  0  0  0  0
   24.6467   -1.2568    0.6478 C   0  0  0  0  0  0  0  0  0  0  0  0
   23.5879   -0.4061    1.0159 C   0  0  0  0  0  0  0  0  0  0  0  0
   24.6512    1.4663    0.9734 H   0  0  0  0  0  0  0  0  0  0  0  0
   18.0738   -2.0027   -0.5636 H   0  0  0  0  0  0  0  0  0  0  0  0
   20.4979   -3.1543    3.2470 C   0  0  0  0  0  0  0  0  0  0  0  0
   20.7136   -3.2532    4.3854 O   0  0  0  0  0  0  0  0  0  0  0  0
   20.7308   -5.4148   -0.2717 H   0  0  0  0  0  0  0  0  0  0  0  0
   22.6873    2.8278    1.6219 H   0  0  0  0  0  0  0  0  0  0  0  0
   18.2445    1.7526    2.6297 H   0  0  0  0  0  0  0  0  0  0  0  0
   18.8255   -5.6936    1.5917 H   0  0  0  0  0  0  0  0  0  0  0  0
   19.7649   -3.4392   -0.6840 C   0  0  0  0  0  0  0  0  0  0  0  0
   20.2707   -3.1238   -1.5884 H   0  0  0  0  0  0  0  0  0  0  0  0
   20.1840    3.1753    2.2895 O   0  0  0  0  0  0  0  0  0  0  0  0
  7 24  1  0  0  0  0
  5 10  1  0  0  0  0
  2  9  1  0  0  0  0
  7  8  2  0  0  0  0
 22 23  2  0  0  0  0
 18 21  2  0  0  0  0
 11 18  1  0  0  0  0
  9 10  2  0  0  0  0
 21 22  1  0  0  0  0
  2  3  1  0  0  0  0
 23 24  1  0  0  0  0
 19 33  4  0  0  0  0
  3  4  1  0  0  0  0
 16 20  4  0  0  0  0
 11 24  2  0  0  0  0
  8  9  1  0  0  0  0
 10 11  1  0  0  0  0
 17 19  4  0  0  0  0
 20 33  4  0  0  0  0
 16 17  4  0  0  0  0
 12 22  1  0  0  0  0
  7 25  1  0  0  0  0
 14 23  1  0  0  0  0
  4 13  1  0  0  0  0
  8 30  1  0  0  0  0
 20 29  1  0  0  0  0
 19 26  1  0  0  0  0
  6 17  1  0  0  0  0
 15 21  1  0  0  0  0
 16 32  1  0  0  0  0
 33 34  1  0  0  0  0
  3 31  1  0  0  0  0
 27 28  2  0  0  0  0
  2 35  2  0  0  0  0
  4  5  2  0  0  0  0
  1 16  1  0  0  0  0
  1 17  1  0  0  0  0
  1 20  1  0  0  0  0
  1 33  1  0  0  0  0
  1  5  1  0  0  0  0
  1 19  1  0  0  0  0
  1 18  1  0  0  0  0
  1 27  1  0  0  0  0
M  END
$$$$
