compound_44
  GFN2-xTB geometry (ORCA XTB2, DDCOSMO(water))

 63 71  0  0  0  0  0  0  0  0999 V2000
   -0.5708   -5.1041    4.1426 C   0  0  0  0  0  0  0  0  0  0  0  0
   -1.0359    1.5677   -2.1483 N   0  0  0  0  0  0  0  0  0  0  0  0
    0.1210   -5.9040    4.3566 H   0  0  0  0  0  0  0  0  0  0  0  0
    0.6560   -3.2746    4.5318 H   0  0  0  0  0  0  0  0  0  0  0  0
   -2.5215   -6.1696    3.9178 H   0  0  0  0  0  0  0  0  0  0  0  0
   -1.6243   -1.9311    4.2809 H   0  0  0  0  0  0  0  0  0  0  0  0
    1.4908   -5.5227    2.0759 H   0  0  0  0  0  0  0  0  0  0  0  0
    3.6926   -5.2039    0.9871 H   0  0  0  0  0  0  0  0  0  0  0  0
   -1.9478   -5.2511    3.9162 C   0  0  0  0  0  0  0  0  0  0  0  0
    3.9939   -3.2754   -0.5748 H   0  0  0  0  0  0  0  0  0  0  0  0
   -2.8314   -0.5867    0.2090 C   0  0  0  0  0  0  0  0  0  0  0  0
   -0.4186   -1.9868    0.2529 C   0  0  0  0  0  0  0  0  0  0  0  0
   -2.6879   -1.7394    1.0095 C   0  0  0  0  0  0  0  0  0  0  0  0
   -1.5108   -2.4404    1.0497 C   0  0  0  0  0  0  0  0  0  0  0  0
   -2.5565   -3.9429    3.9264 C   0  0  0  0  0  0  0  0  0  0  0  0
   -1.1382   -4.0793    2.1870 Ru  0  0  0  0  0  0  0  0  0  0  0  0
    0.7787   -2.8094    0.3723 C   0  0  0  0  0  0  0  0  0  0  0  0
   -3.5603   -2.0492    1.5782 H   0  0  0  0  0  0  0  0  0  0  0  0
    0.6388   -3.8596    1.2162 N   0  0  0  0  0  0  0  0  0  0  0  0
    2.0842   -1.7481   -0.9531 H   0  0  0  0  0  0  0  0  0  0  0  0
    1.6675   -4.6854    1.4114 C   0  0  0  0  0  0  0  0  0  0  0  0
    2.8912   -4.5112    0.7946 C   0  0  0  0  0  0  0  0  0  0  0  0
    3.0543   -3.4385   -0.0726 C   0  0  0  0  0  0  0  0  0  0  0  0
    1.9891   -2.5859   -0.2845 C   0  0  0  0  0  0  0  0  0  0  0  0
   -1.9059   -4.9842    0.7990 C   0  0  0  0  0  0  0  0  0  0  0  0
   -2.5294   -5.4878   -0.0398 O   0  0  0  0  0  0  0  0  0  0  0  0
   -0.2928   -3.7063    4.2390 C   0  0  0  0  0  0  0  0  0  0  0  0
   -1.5010   -2.9945    4.1274 C   0  0  0  0  0  0  0  0  0  0  0  0
   -1.9728    1.0292   -1.3668 C   0  0  0  0  0  0  0  0  0  0  0  0
   -3.1522    1.6414   -1.3350 N   0  0  0  0  0  0  0  0  0  0  0  0
   -4.1117    1.1385   -0.5533 C   0  0  0  0  0  0  0  0  0  0  0  0
   -4.0165    0.0700    0.2044 N   0  0  0  0  0  0  0  0  0  0  0  0
   -5.4130    1.8759   -0.5449 C   0  0  0  0  0  0  0  0  0  0  0  0
   -0.1303    1.1484   -2.2451 H   0  0  0  0  0  0  0  0  0  0  0  0
   -1.2833    2.3776   -2.6882 H   0  0  0  0  0  0  0  0  0  0  0  0
   -0.5331   -0.8648   -0.5433 C   0  0  0  0  0  0  0  0  0  0  0  0
   -1.7327   -0.1488   -0.5765 C   0  0  0  0  0  0  0  0  0  0  0  0
    0.3019   -0.5452   -1.1447 H   0  0  0  0  0  0  0  0  0  0  0  0
   -3.9935   -3.7737    3.8220 C   0  0  0  0  0  0  0  0  0  0  0  0
   -4.7260   -4.6364    3.3480 O   0  0  0  0  0  0  0  0  0  0  0  0
   -4.5857   -2.6283    4.2301 O   0  0  0  0  0  0  0  0  0  0  0  0
   -3.9825   -1.8143    5.1933 C   0  0  0  0  0  0  0  0  0  0  0  0
   -3.8711   -0.4459    4.9266 C   0  0  0  0  0  0  0  0  0  0  0  0
   -3.3677    0.3882    5.9209 C   0  0  0  0  0  0  0  0  0  0  0  0
   -2.9821   -0.1493    7.1346 C   0  0  0  0  0  0  0  0  0  0  0  0
   -3.0803   -1.5037    7.3959 C   0  0  0  0  0  0  0  0  0  0  0  0
   -3.5892   -2.3554    6.4221 C   0  0  0  0  0  0  0  0  0  0  0  0
   -4.2567   -0.0553    3.6824 O   0  0  0  0  0  0  0  0  0  0  0  0
   -3.2783    1.4463    5.7489 H   0  0  0  0  0  0  0  0  0  0  0  0
   -2.5927    0.5049    7.8977 H   0  0  0  0  0  0  0  0  0  0  0  0
   -2.7718   -1.8894    8.3514 H   0  0  0  0  0  0  0  0  0  0  0  0
   -3.7369   -3.7049    6.5473 O   0  0  0  0  0  0  0  0  0  0  0  0
   -3.3742   -4.3007    7.7826 C   0  0  0  0  0  0  0  0  0  0  0  0
   -3.9701   -3.8949    8.6023 H   0  0  0  0  0  0  0  0  0  0  0  0
   -2.3096   -4.1606    7.9818 H   0  0  0  0  0  0  0  0  0  0  0  0
   -3.5899   -5.3598    7.6606 H   0  0  0  0  0  0  0  0  0  0  0  0
   -4.2293    1.3297    3.3806 C   0  0  0  0  0  0  0  0  0  0  0  0
   -4.9088    1.8834    4.0312 H   0  0  0  0  0  0  0  0  0  0  0  0
   -4.5617    1.3929    2.3463 H   0  0  0  0  0  0  0  0  0  0  0  0
   -3.2150    1.7270    3.4631 H   0  0  0  0  0  0  0  0  0  0  0  0
   -5.2546    2.8920   -0.1918 H   0  0  0  0  0  0  0  0  0  0  0  0
   -6.1184    1.3627    0.1011 H   0  0  0  0  0  0  0  0  0  0  0  0
   -5.8090    1.9290   -1.5557 H   0  0  0  0  0  0  0  0  0  0  0  0
 29 37  1  0  0  0  0
 15 39  1  0  0  0  0
 39 41  1  0  0  0  0
 12 17  1  0  0  0  0
 43 48  1  0  0  0  0
 47 52  1  0  0  0  0
  2 29  1  0  0  0  0
 13 14  4  0  0  0  0
 31 32  2  0  0  0  0
 12 36  4  0  0  0  0
 23 24  4  0  0  0  0
 21 22  4  0  0  0  0
 44 45  4  0  0  0  0
 45 46  4  0  0  0  0
 31 33  1  0  0  0  0
 22 23  4  0  0  0  0
 46 47  4  0  0  0  0
 11 32  1  0  0  0  0
 43 44  4  0  0  0  0
 29 30  2  0  0  0  0
 17 24  4  0  0  0  0
 41 42  1  0  0  0  0
 19 21  4  0  0  0  0
 36 37  4  0  0  0  0
 42 43  4  0  0  0  0
 42 47  4  0  0  0  0
 30 31  1  0  0  0  0
  1  9  4  0  0  0  0
 27 28  4  0  0  0  0
 11 13  4  0  0  0  0
 48 57  1  0  0  0  0
 52 53  1  0  0  0  0
 17 19  4  0  0  0  0
 11 37  4  0  0  0  0
 12 14  4  0  0  0  0
  1 27  4  0  0  0  0
  2 34  1  0  0  0  0
 15 28  4  0  0  0  0
  2 35  1  0  0  0  0
 46 51  1  0  0  0  0
 44 49  1  0  0  0  0
 20 24  1  0  0  0  0
  8 22  1  0  0  0  0
 36 38  1  0  0  0  0
 10 23  1  0  0  0  0
 45 50  1  0  0  0  0
  1  3  1  0  0  0  0
  6 28  1  0  0  0  0
  9 15  4  0  0  0  0
  4 27  1  0  0  0  0
  5  9  1  0  0  0  0
  7 21  1  0  0  0  0
 33 62  1  0  0  0  0
 13 18  1  0  0  0  0
 33 63  1  0  0  0  0
 33 61  1  0  0  0  0
 53 56  1  0  0  0  0
 57 59  1  0  0  0  0
 57 58  1  0  0  0  0
 53 54  1  0  0  0  0
 53 55  1  0  0  0  0
 57 60  1  0  0  0  0
 25 26  2  0  0  0  0
 39 40  2  0  0  0  0
 16 19  1  0  0  0  0
 16 25  1  0  0  0  0
 16  1  1  0  0  0  0
 16  9  1  0  0  0  0
 16 27  1  0  0  0  0
 16 14  1  0  0  0  0
 16 28  1  0  0  0  0
M  END
$$$$
