compound_25
  GFN2-xTB geometry (ORCA XTB2, DDCOSMO(water))

 56 65  0  0  0  0  0  0  0  0999 V2000
    0.2395   -0.6736   -0.7053 C   0  0  0  0  0  0  0  0  0  0  0  0
   -0.8939   -0.9490    0.1026 C   0  0  0  0  0  0  0  0  0  0  0  0
   -0.9694   -2.2552    0.6470 C   0  0  0  0  0  0  0  0  0  0  0  0
    0.0319   -3.1908    0.3405 C   0  0  0  0  0  0  0  0  0  0  0  0
    1.1607   -2.9161   -0.4834 C   0  0  0  0  0  0  0  0  0  0  0  0
    1.2354   -1.6204   -0.9809 C   0  0  0  0  0  0  0  0  0  0  0  0
    0.9808   -7.0489    1.1003 H   0  0  0  0  0  0  0  0  0  0  0  0
    3.1069   -7.7597    0.0421 H   0  0  0  0  0  0  0  0  0  0  0  0
   -3.7240   -2.2123    2.3890 H   0  0  0  0  0  0  0  0  0  0  0  0
   -1.6949   -6.8293    4.3180 H   0  0  0  0  0  0  0  0  0  0  0  0
   -1.9423   -0.0756    0.4391 C   0  0  0  0  0  0  0  0  0  0  0  0
   -2.9532   -0.5386    1.2520 C   0  0  0  0  0  0  0  0  0  0  0  0
   -2.9312   -1.8464    1.7504 C   0  0  0  0  0  0  0  0  0  0  0  0
   -1.9550   -2.6869    1.4610 N   0  0  0  0  0  0  0  0  0  0  0  0
   -1.9364    0.9330    0.0564 H   0  0  0  0  0  0  0  0  0  0  0  0
   -3.7738    0.1053    1.5213 H   0  0  0  0  0  0  0  0  0  0  0  0
    1.8882   -4.1512   -0.4929 C   0  0  0  0  0  0  0  0  0  0  0  0
    1.1336   -5.0581    0.3143 C   0  0  0  0  0  0  0  0  0  0  0  0
    0.0106   -4.4394    0.8125 N   0  0  0  0  0  0  0  0  0  0  0  0
    3.6491   -3.8784   -1.6861 H   0  0  0  0  0  0  0  0  0  0  0  0
    1.5662   -6.3645    0.5054 C   0  0  0  0  0  0  0  0  0  0  0  0
    2.7483   -6.7514   -0.0935 C   0  0  0  0  0  0  0  0  0  0  0  0
    3.4964   -5.8660   -0.8706 C   0  0  0  0  0  0  0  0  0  0  0  0
    3.0775   -4.5676   -1.0812 C   0  0  0  0  0  0  0  0  0  0  0  0
    2.2653   -0.9629   -1.8175 C   0  0  0  0  0  0  0  0  0  0  0  0
    1.8145    0.3199   -2.0116 N   0  0  0  0  0  0  0  0  0  0  0  0
    0.6040    0.5726   -1.3657 C   0  0  0  0  0  0  0  0  0  0  0  0
    0.0337    1.6459   -1.3939 O   0  0  0  0  0  0  0  0  0  0  0  0
    3.3060   -1.4126   -2.2501 O   0  0  0  0  0  0  0  0  0  0  0  0
    2.3139    1.0169   -2.5440 H   0  0  0  0  0  0  0  0  0  0  0  0
   -1.4443   -4.5205    2.3018 Ru  0  0  0  0  0  0  0  0  0  0  0  0
   -2.6678   -5.4281    1.2712 C   0  0  0  0  0  0  0  0  0  0  0  0
   -3.4356   -6.0202    0.6491 O   0  0  0  0  0  0  0  0  0  0  0  0
   -1.2403   -3.5261    4.3197 C   0  0  0  0  0  0  0  0  0  0  0  0
   -2.1092   -4.6318    4.4652 C   0  0  0  0  0  0  0  0  0  0  0  0
   -1.3584   -5.8136    4.1564 C   0  0  0  0  0  0  0  0  0  0  0  0
   -0.0548   -5.4262    3.7764 C   0  0  0  0  0  0  0  0  0  0  0  0
    0.0254   -3.9894    3.8693 C   0  0  0  0  0  0  0  0  0  0  0  0
   -3.0839   -4.6108    4.9300 H   0  0  0  0  0  0  0  0  0  0  0  0
    0.7771   -6.1010    3.6302 H   0  0  0  0  0  0  0  0  0  0  0  0
    4.4178   -6.2060   -1.3172 H   0  0  0  0  0  0  0  0  0  0  0  0
   -1.4515   -2.4980    4.5846 H   0  0  0  0  0  0  0  0  0  0  0  0
    1.2087   -3.1201    3.7233 C   0  0  0  0  0  0  0  0  0  0  0  0
    5.8319   -3.6549    2.6930 O   0  0  0  0  0  0  0  0  0  0  0  0
    1.1912   -1.9342    4.0664 O   0  0  0  0  0  0  0  0  0  0  0  0
    2.3058   -3.7039    3.2057 N   0  0  0  0  0  0  0  0  0  0  0  0
    3.5808   -3.0466    3.0511 C   0  0  0  0  0  0  0  0  0  0  0  0
    4.6049   -4.1196    2.7135 C   0  0  0  0  0  0  0  0  0  0  0  0
    4.3034   -5.2647    2.4682 O   0  0  0  0  0  0  0  0  0  0  0  0
    4.5484   -1.4971    1.9041 H   0  0  0  0  0  0  0  0  0  0  0  0
    2.2880   -4.6610    2.8742 H   0  0  0  0  0  0  0  0  0  0  0  0
    6.4830   -4.3350    2.4347 H   0  0  0  0  0  0  0  0  0  0  0  0
    3.5825   -1.9914    1.9367 C   0  0  0  0  0  0  0  0  0  0  0  0
    2.8103   -1.2539    2.1424 H   0  0  0  0  0  0  0  0  0  0  0  0
    3.3839   -2.4539    0.9730 H   0  0  0  0  0  0  0  0  0  0  0  0
    3.8553   -2.5581    3.9946 H   0  0  0  0  0  0  0  0  0  0  0  0
 44 48  1  0  0  0  0
  1  2  1  0  0  0  0
  5 17  1  0  0  0  0
  1 27  1  0  0  0  0
 38 43  1  0  0  0  0
  4 19  1  0  0  0  0
  6 25  1  0  0  0  0
 11 12  2  0  0  0  0
 23 24  4  0  0  0  0
 21 22  4  0  0  0  0
 43 46  1  0  0  0  0
 13 14  2  0  0  0  0
  3 14  1  0  0  0  0
 18 21  4  0  0  0  0
  5  6  1  0  0  0  0
 17 24  4  0  0  0  0
 22 23  4  0  0  0  0
 12 13  1  0  0  0  0
  1  6  2  0  0  0  0
  3  4  1  0  0  0  0
  2 11  1  0  0  0  0
 47 48  1  0  0  0  0
 25 26  1  0  0  0  0
 36 37  4  0  0  0  0
 18 19  1  0  0  0  0
 34 35  4  0  0  0  0
  2  3  2  0  0  0  0
 34 38  4  0  0  0  0
 47 53  1  0  0  0  0
  4  5  2  0  0  0  0
 17 18  4  0  0  0  0
 26 27  1  0  0  0  0
 35 36  4  0  0  0  0
 12 16  1  0  0  0  0
  8 22  1  0  0  0  0
 11 15  1  0  0  0  0
 23 41  1  0  0  0  0
  7 21  1  0  0  0  0
 26 30  1  0  0  0  0
 35 39  1  0  0  0  0
 20 24  1  0  0  0  0
 37 38  4  0  0  0  0
 37 40  1  0  0  0  0
  9 13  1  0  0  0  0
 10 36  1  0  0  0  0
 34 42  1  0  0  0  0
 46 51  1  0  0  0  0
 50 53  1  0  0  0  0
 53 55  1  0  0  0  0
 53 54  1  0  0  0  0
 44 52  1  0  0  0  0
 47 56  1  0  0  0  0
 46 47  1  0  0  0  0
 32 33  2  0  0  0  0
 48 49  2  0  0  0  0
 25 29  2  0  0  0  0
 27 28  2  0  0  0  0
 43 45  2  0  0  0  0
 31 19  1  0  0  0  0
 31 32  1  0  0  0  0
 31 34  1  0  0  0  0
 31 35  1  0  0  0  0
 31 36  1  0  0  0  0
 31 37  1  0  0  0  0
 31 14  1  0  0  0  0
M  END
$$$$
