compound_49
  GFN2-xTB geometry (ORCA XTB2, DDCOSMO(water))

 56 64  0  0  0  0  0  0  0  0999 V2000
   -1.0807   -1.0215   -2.1324 C   0  0  0  0  0  0  0  0  0  0  0  0
   -1.2553   -0.7976   -0.7451 C   0  0  0  0  0  0  0  0  0  0  0  0
   -0.2028   -1.2108    0.1159 C   0  0  0  0  0  0  0  0  0  0  0  0
    0.9590   -1.7796   -0.4467 C   0  0  0  0  0  0  0  0  0  0  0  0
    1.1301   -1.9903   -1.8557 C   0  0  0  0  0  0  0  0  0  0  0  0
    0.0777   -1.6157   -2.6697 C   0  0  0  0  0  0  0  0  0  0  0  0
    4.4495   -3.5469    0.6295 H   0  0  0  0  0  0  0  0  0  0  0  0
    5.7604   -4.3742   -1.2777 H   0  0  0  0  0  0  0  0  0  0  0  0
   -1.3956   -0.5511    3.0916 H   0  0  0  0  0  0  0  0  0  0  0  0
    5.0822   -4.2051   -3.8152 O   0  0  0  0  0  0  0  0  0  0  0  0
   -2.4001   -0.2562   -0.1419 C   0  0  0  0  0  0  0  0  0  0  0  0
   -2.4059   -0.1716    1.2313 C   0  0  0  0  0  0  0  0  0  0  0  0
   -1.3441   -0.6185    2.0138 C   0  0  0  0  0  0  0  0  0  0  0  0
   -0.2614   -1.1443    1.4596 N   0  0  0  0  0  0  0  0  0  0  0  0
   -3.2395    0.0630   -0.7380 H   0  0  0  0  0  0  0  0  0  0  0  0
   -3.4820    0.3451    1.8669 F   0  0  0  0  0  0  0  0  0  0  0  0
    2.3994   -2.6463   -1.9596 C   0  0  0  0  0  0  0  0  0  0  0  0
    2.8742   -2.7827   -0.6218 C   0  0  0  0  0  0  0  0  0  0  0  0
    1.9783   -2.2381    0.2766 N   0  0  0  0  0  0  0  0  0  0  0  0
    2.7830   -3.0258   -4.0429 H   0  0  0  0  0  0  0  0  0  0  0  0
    4.0879   -3.4098   -0.3752 C   0  0  0  0  0  0  0  0  0  0  0  0
    4.8155   -3.8802   -1.4486 C   0  0  0  0  0  0  0  0  0  0  0  0
    4.3581   -3.7401   -2.7637 C   0  0  0  0  0  0  0  0  0  0  0  0
    3.1423   -3.1220   -3.0290 C   0  0  0  0  0  0  0  0  0  0  0  0
   -0.1382   -1.7825   -4.1185 C   0  0  0  0  0  0  0  0  0  0  0  0
   -1.3823   -1.2590   -4.3673 N   0  0  0  0  0  0  0  0  0  0  0  0
   -2.0196   -0.8082   -3.2056 C   0  0  0  0  0  0  0  0  0  0  0  0
   -3.1531   -0.3504   -3.1985 O   0  0  0  0  0  0  0  0  0  0  0  0
    0.5855   -2.2842   -4.9598 O   0  0  0  0  0  0  0  0  0  0  0  0
   -1.8211   -1.2580   -5.2759 H   0  0  0  0  0  0  0  0  0  0  0  0
    1.2523   -2.3111    2.2455 Ru  0  0  0  0  0  0  0  0  0  0  0  0
   -0.4872   -4.2196    0.6081 C   0  0  0  0  0  0  0  0  0  0  0  0
   -1.3423   -4.6461   -0.6808 S   0  0  0  0  0  0  0  0  0  0  0  0
    2.5284   -0.5092    2.9633 S   0  0  0  0  0  0  0  0  0  0  0  0
    2.3799   -0.5325    4.8189 C   0  0  0  0  0  0  0  0  0  0  0  0
    1.0428   -1.0383    5.3143 C   0  0  0  0  0  0  0  0  0  0  0  0
    0.2469   -2.4079    4.3457 S   0  0  0  0  0  0  0  0  0  0  0  0
    1.0123   -3.9228    5.0549 C   0  0  0  0  0  0  0  0  0  0  0  0
    2.4922   -4.0696    4.8029 C   0  0  0  0  0  0  0  0  0  0  0  0
    2.9631   -3.7491    3.0278 S   0  0  0  0  0  0  0  0  0  0  0  0
    4.4117   -2.6100    3.3001 C   0  0  0  0  0  0  0  0  0  0  0  0
    4.2171   -1.2104    2.7589 C   0  0  0  0  0  0  0  0  0  0  0  0
    4.9037   -0.5152    3.2416 H   0  0  0  0  0  0  0  0  0  0  0  0
    2.5051    0.5079    5.1177 H   0  0  0  0  0  0  0  0  0  0  0  0
    3.2107   -1.1136    5.2030 H   0  0  0  0  0  0  0  0  0  0  0  0
    0.2891   -0.2530    5.2670 H   0  0  0  0  0  0  0  0  0  0  0  0
    1.1183   -1.3990    6.3384 H   0  0  0  0  0  0  0  0  0  0  0  0
    0.4393   -4.7245    4.5831 H   0  0  0  0  0  0  0  0  0  0  0  0
    0.8026   -3.9081    6.1240 H   0  0  0  0  0  0  0  0  0  0  0  0
    2.7962   -5.0990    4.9924 H   0  0  0  0  0  0  0  0  0  0  0  0
    3.0597   -3.3995    5.4418 H   0  0  0  0  0  0  0  0  0  0  0  0
    4.6199   -2.6102    4.3664 H   0  0  0  0  0  0  0  0  0  0  0  0
    5.2486   -3.0837    2.7887 H   0  0  0  0  0  0  0  0  0  0  0  0
    4.3616   -1.1719    1.6781 H   0  0  0  0  0  0  0  0  0  0  0  0
    0.1188   -3.9533    1.5725 N   0  0  0  0  0  0  0  0  0  0  0  0
    5.9029   -4.6072   -3.4875 H   0  0  0  0  0  0  0  0  0  0  0  0
  2  3  1  0  0  0  0
  5 17  1  0  0  0  0
  1 27  1  0  0  0  0
 10 23  1  0  0  0  0
  6 25  1  0  0  0  0
  4 19  1  0  0  0  0
 12 16  1  0  0  0  0
 11 12  4  0  0  0  0
 21 22  4  0  0  0  0
  5  6  4  0  0  0  0
 17 24  4  0  0  0  0
 13 14  4  0  0  0  0
 18 21  4  0  0  0  0
 23 24  4  0  0  0  0
 12 13  4  0  0  0  0
 38 39  1  0  0  0  0
 22 23  4  0  0  0  0
 35 36  1  0  0  0  0
 41 42  1  0  0  0  0
  2 11  4  0  0  0  0
  1  6  4  0  0  0  0
 25 26  1  0  0  0  0
  3  4  4  0  0  0  0
  3 14  4  0  0  0  0
  1  2  4  0  0  0  0
 18 19  1  0  0  0  0
 17 18  4  0  0  0  0
  4  5  4  0  0  0  0
  7 21  1  0  0  0  0
 26 27  1  0  0  0  0
 11 15  1  0  0  0  0
 26 30  1  0  0  0  0
  8 22  1  0  0  0  0
 20 24  1  0  0  0  0
  9 13  1  0  0  0  0
 10 56  1  0  0  0  0
 35 45  1  0  0  0  0
 39 51  1  0  0  0  0
 41 52  1  0  0  0  0
 37 38  1  0  0  0  0
 34 42  1  0  0  0  0
 36 47  1  0  0  0  0
 41 53  1  0  0  0  0
 36 46  1  0  0  0  0
 38 49  1  0  0  0  0
 35 44  1  0  0  0  0
 39 50  1  0  0  0  0
 42 43  1  0  0  0  0
 42 54  1  0  0  0  0
 38 48  1  0  0  0  0
 36 37  1  0  0  0  0
 34 35  1  0  0  0  0
 40 41  1  0  0  0  0
 39 40  1  0  0  0  0
 32 55  2  0  0  0  0
 25 29  2  0  0  0  0
 27 28  2  0  0  0  0
 32 33  2  0  0  0  0
 31 40  1  0  0  0  0
 31 55  1  0  0  0  0
 31 14  1  0  0  0  0
 31 19  1  0  0  0  0
 31 34  1  0  0  0  0
 31 37  1  0  0  0  0
M  END
$$$$
