compound_122
  GFN2-xTB geometry (ORCA XTB2, DDCOSMO(water))

 70 78  0  0  0  0  0  0  0  0999 V2000
   -4.3935   -4.8000   -0.4812 C   0  0  0  0  0  0  0  0  0  0  0  0
   -5.3666   -5.0739    0.4434 C   0  0  0  0  0  0  0  0  0  0  0  0
   -5.0579   -5.9025    1.5713 C   0  0  0  0  0  0  0  0  0  0  0  0
   -3.8074   -6.4492    1.7000 C   0  0  0  0  0  0  0  0  0  0  0  0
   -2.8128   -6.2013    0.7372 C   0  0  0  0  0  0  0  0  0  0  0  0
   -3.0964   -5.3287   -0.3409 C   0  0  0  0  0  0  0  0  0  0  0  0
   -4.6106   -4.1947   -1.3435 H   0  0  0  0  0  0  0  0  0  0  0  0
   -9.6753    0.5037    0.3143 H   0  0  0  0  0  0  0  0  0  0  0  0
   -3.5515   -7.1075    2.5119 H   0  0  0  0  0  0  0  0  0  0  0  0
  -10.8791   -0.3444    1.0572 H   0  0  0  0  0  0  0  0  0  0  0  0
   -6.0847   -6.1097    2.4262 O   0  0  0  0  0  0  0  0  0  0  0  0
   -5.8890   -6.9694    3.5343 C   0  0  0  0  0  0  0  0  0  0  0  0
   -5.6302   -7.9789    3.2083 H   0  0  0  0  0  0  0  0  0  0  0  0
   -6.8407   -6.9851    4.0606 H   0  0  0  0  0  0  0  0  0  0  0  0
   -5.1069   -6.5902    4.1968 H   0  0  0  0  0  0  0  0  0  0  0  0
   -6.6467   -4.6298    0.3618 O   0  0  0  0  0  0  0  0  0  0  0  0
   -7.1122   -4.2043   -0.9181 C   0  0  0  0  0  0  0  0  0  0  0  0
   -8.6293   -4.0329   -0.8644 C   0  0  0  0  0  0  0  0  0  0  0  0
   -6.6332   -3.2533   -1.1917 H   0  0  0  0  0  0  0  0  0  0  0  0
   -9.0345   -4.6665   -0.0720 H   0  0  0  0  0  0  0  0  0  0  0  0
   -9.0443   -4.3599   -1.8233 H   0  0  0  0  0  0  0  0  0  0  0  0
   -6.8368   -4.9625   -1.6585 H   0  0  0  0  0  0  0  0  0  0  0  0
   -9.0183   -2.6418   -0.6355 N   0  0  0  0  0  0  0  0  0  0  0  0
   -8.4605   -2.0595   -1.2774 H   0  0  0  0  0  0  0  0  0  0  0  0
   -4.3725    0.7745   -2.1367 F   0  0  0  0  0  0  0  0  0  0  0  0
  -10.4322   -2.3889   -0.9468 C   0  0  0  0  0  0  0  0  0  0  0  0
  -10.6047   -0.8765   -0.9020 C   0  0  0  0  0  0  0  0  0  0  0  0
  -10.0953   -0.4239    0.4031 N   0  0  0  0  0  0  0  0  0  0  0  0
  -10.6920   -2.7802   -1.9344 H   0  0  0  0  0  0  0  0  0  0  0  0
  -11.0485   -2.8759   -0.1846 H   0  0  0  0  0  0  0  0  0  0  0  0
  -11.6522   -0.5983   -1.0319 H   0  0  0  0  0  0  0  0  0  0  0  0
  -10.0109   -0.4165   -1.6974 H   0  0  0  0  0  0  0  0  0  0  0  0
   -1.6196   -6.8387    0.8389 N   0  0  0  0  0  0  0  0  0  0  0  0
   -0.7774   -6.6516   -0.1389 C   0  0  0  0  0  0  0  0  0  0  0  0
   -0.9107   -5.8325   -1.1822 N   0  0  0  0  0  0  0  0  0  0  0  0
   -2.0287   -5.1242   -1.2607 C   0  0  0  0  0  0  0  0  0  0  0  0
   -7.7456   -4.6442    2.6211 H   0  0  0  0  0  0  0  0  0  0  0  0
    0.1532   -7.2042   -0.0940 H   0  0  0  0  0  0  0  0  0  0  0  0
  -10.1631   -4.2045    2.1894 H   0  0  0  0  0  0  0  0  0  0  0  0
   -2.1333   -4.2627   -2.3192 N   0  0  0  0  0  0  0  0  0  0  0  0
   -2.6859   -2.9902   -2.2659 C   0  0  0  0  0  0  0  0  0  0  0  0
   -2.7367   -2.2843   -1.0599 C   0  0  0  0  0  0  0  0  0  0  0  0
   -3.2871   -1.0188   -1.0245 C   0  0  0  0  0  0  0  0  0  0  0  0
   -3.8029   -0.4582   -2.1840 C   0  0  0  0  0  0  0  0  0  0  0  0
   -3.7359   -1.1349   -3.3888 C   0  0  0  0  0  0  0  0  0  0  0  0
   -3.1672   -2.3919   -3.4319 C   0  0  0  0  0  0  0  0  0  0  0  0
   -2.3285   -2.7170   -0.1615 H   0  0  0  0  0  0  0  0  0  0  0  0
   -1.4689   -4.4329   -3.0631 H   0  0  0  0  0  0  0  0  0  0  0  0
   -3.3005   -0.0953    0.4566 Cl  0  0  0  0  0  0  0  0  0  0  0  0
   -4.1306   -0.6637   -4.2736 H   0  0  0  0  0  0  0  0  0  0  0  0
   -3.1019   -2.9213   -4.3678 H   0  0  0  0  0  0  0  0  0  0  0  0
   -8.6715   -1.7495    1.2254 Ru  0  0  0  0  0  0  0  0  0  0  0  0
   -7.3237   -2.6400    3.2479 C   0  0  0  0  0  0  0  0  0  0  0  0
   -7.8868   -1.3618    3.5377 C   0  0  0  0  0  0  0  0  0  0  0  0
   -9.2570   -1.1457    3.4397 C   0  0  0  0  0  0  0  0  0  0  0  0
  -10.0879   -2.1550    2.8827 C   0  0  0  0  0  0  0  0  0  0  0  0
   -9.5211   -3.3919    2.5097 C   0  0  0  0  0  0  0  0  0  0  0  0
   -8.1512   -3.6536    2.7732 C   0  0  0  0  0  0  0  0  0  0  0  0
   -7.2446   -0.5983    3.9632 H   0  0  0  0  0  0  0  0  0  0  0  0
   -9.6852   -0.2215    3.8094 H   0  0  0  0  0  0  0  0  0  0  0  0
   -6.9554   -0.4683    0.0807 Cl  0  0  0  0  0  0  0  0  0  0  0  0
   -5.6016   -2.5143    4.5222 H   0  0  0  0  0  0  0  0  0  0  0  0
   -5.0202   -1.1293    2.5986 H   0  0  0  0  0  0  0  0  0  0  0  0
   -5.3167   -2.4815    1.4822 H   0  0  0  0  0  0  0  0  0  0  0  0
  -11.1646   -2.0205    2.8638 H   0  0  0  0  0  0  0  0  0  0  0  0
   -5.8728   -2.8953    3.5349 C   0  0  0  0  0  0  0  0  0  0  0  0
   -4.9705   -2.2249    2.4965 C   0  0  0  0  0  0  0  0  0  0  0  0
   -3.6507   -2.6787    2.6833 O   0  0  0  0  0  0  0  0  0  0  0  0
   -3.0703   -2.1912    2.0849 H   0  0  0  0  0  0  0  0  0  0  0  0
   -5.6639   -3.9632    3.5080 H   0  0  0  0  0  0  0  0  0  0  0  0
  6 36  1  0  0  0  0
  3 11  1  0  0  0  0
  2 16  1  0  0  0  0
 34 35  1  0  0  0  0
  1  2  4  0  0  0  0
  3  4  4  0  0  0  0
 25 44  1  0  0  0  0
 45 46  4  0  0  0  0
 42 43  4  0  0  0  0
 44 45  4  0  0  0  0
 43 44  4  0  0  0  0
 54 55  4  0  0  0  0
 53 66  1  0  0  0  0
 53 58  4  0  0  0  0
  5 33  1  0  0  0  0
 41 46  4  0  0  0  0
 41 42  4  0  0  0  0
 67 68  1  0  0  0  0
 36 40  1  0  0  0  0
  4  5  4  0  0  0  0
  1  6  4  0  0  0  0
 56 57  4  0  0  0  0
 26 27  1  0  0  0  0
 11 12  1  0  0  0  0
 43 49  1  0  0  0  0
  5  6  4  0  0  0  0
 17 18  1  0  0  0  0
 66 67  1  0  0  0  0
 57 58  4  0  0  0  0
 55 56  4  0  0  0  0
 16 17  1  0  0  0  0
 40 41  1  0  0  0  0
 53 54  4  0  0  0  0
  2  3  4  0  0  0  0
  1  7  1  0  0  0  0
  4  9  1  0  0  0  0
 68 69  1  0  0  0  0
 46 51  1  0  0  0  0
 45 50  1  0  0  0  0
 42 47  1  0  0  0  0
 37 58  1  0  0  0  0
 40 48  1  0  0  0  0
 34 38  1  0  0  0  0
 55 60  1  0  0  0  0
 39 57  1  0  0  0  0
 54 59  1  0  0  0  0
 56 65  1  0  0  0  0
 12 14  1  0  0  0  0
 66 70  1  0  0  0  0
 27 31  1  0  0  0  0
 12 13  1  0  0  0  0
 18 20  1  0  0  0  0
 62 66  1  0  0  0  0
 12 15  1  0  0  0  0
 26 29  1  0  0  0  0
  8 28  1  0  0  0  0
 27 32  1  0  0  0  0
 26 30  1  0  0  0  0
 18 21  1  0  0  0  0
 17 22  1  0  0  0  0
 10 28  1  0  0  0  0
 17 19  1  0  0  0  0
 63 67  1  0  0  0  0
 64 67  1  0  0  0  0
 23 24  1  0  0  0  0
 18 23  1  0  0  0  0
 23 26  1  0  0  0  0
 27 28  1  0  0  0  0
 33 34  2  0  0  0  0
 35 36  2  0  0  0  0
 52 58  1  0  0  0  0
 52 23  1  0  0  0  0
 52 28  1  0  0  0  0
 52 56  1  0  0  0  0
 52 57  1  0  0  0  0
 52 61  1  0  0  0  0
 52 54  1  0  0  0  0
 52 55  1  0  0  0  0
M  END
$$$$
