compound_32
  GFN2-xTB geometry (ORCA XTB2, DDCOSMO(water))

 59 67  0  0  0  0  0  0  0  0999 V2000
   -1.8722   -0.6490   -3.3782 C   0  0  0  0  0  0  0  0  0  0  0  0
   -2.0287   -0.5601   -1.9739 C   0  0  0  0  0  0  0  0  0  0  0  0
   -0.8706   -0.7996   -1.1829 C   0  0  0  0  0  0  0  0  0  0  0  0
    0.3486   -1.0867   -1.8251 C   0  0  0  0  0  0  0  0  0  0  0  0
    0.4960   -1.1770   -3.2455 C   0  0  0  0  0  0  0  0  0  0  0  0
   -0.6486   -0.9509   -3.9934 C   0  0  0  0  0  0  0  0  0  0  0  0
    4.2263   -1.8811   -0.9660 H   0  0  0  0  0  0  0  0  0  0  0  0
    5.6119   -2.2861   -2.9688 H   0  0  0  0  0  0  0  0  0  0  0  0
   -1.9769   -0.4112    1.8779 H   0  0  0  0  0  0  0  0  0  0  0  0
    4.7751   -2.2271   -5.4655 O   0  0  0  0  0  0  0  0  0  0  0  0
   -3.2159   -0.2534   -1.2895 C   0  0  0  0  0  0  0  0  0  0  0  0
   -3.1531   -0.2041    0.0833 C   0  0  0  0  0  0  0  0  0  0  0  0
   -1.9768   -0.4579    0.7973 C   0  0  0  0  0  0  0  0  0  0  0  0
   -0.8545   -0.7633    0.1666 N   0  0  0  0  0  0  0  0  0  0  0  0
   -4.1312   -0.0626   -1.8264 H   0  0  0  0  0  0  0  0  0  0  0  0
   -4.2564    0.0970    0.7946 F   0  0  0  0  0  0  0  0  0  0  0  0
    1.8805   -1.4862   -3.4324 C   0  0  0  0  0  0  0  0  0  0  0  0
    2.4448   -1.5482   -2.1205 C   0  0  0  0  0  0  0  0  0  0  0  0
    1.4891   -1.2942   -1.1622 N   0  0  0  0  0  0  0  0  0  0  0  0
    2.2482   -1.6701   -5.5469 H   0  0  0  0  0  0  0  0  0  0  0  0
    3.7941   -1.8349   -1.9558 C   0  0  0  0  0  0  0  0  0  0  0  0
    4.5617   -2.0584   -3.0792 C   0  0  0  0  0  0  0  0  0  0  0  0
    4.0110   -2.0012   -4.3667 C   0  0  0  0  0  0  0  0  0  0  0  0
    2.6658   -1.7120   -4.5529 C   0  0  0  0  0  0  0  0  0  0  0  0
   -0.8700   -0.9578   -5.4594 C   0  0  0  0  0  0  0  0  0  0  0  0
   -2.2007   -0.6629   -5.6272 N   0  0  0  0  0  0  0  0  0  0  0  0
   -2.8725   -0.4636   -4.4208 C   0  0  0  0  0  0  0  0  0  0  0  0
   -4.0541   -0.1910   -4.3405 O   0  0  0  0  0  0  0  0  0  0  0  0
   -0.0817   -1.1702   -6.3562 O   0  0  0  0  0  0  0  0  0  0  0  0
    1.1548   -4.0701    1.1851 O   0  0  0  0  0  0  0  0  0  0  0  0
    1.0488   -1.1026    0.9004 Ru  0  0  0  0  0  0  0  0  0  0  0  0
    0.9848   -2.9444    1.0475 C   0  0  0  0  0  0  0  0  0  0  0  0
   -2.6503   -0.5966   -6.5286 H   0  0  0  0  0  0  0  0  0  0  0  0
    0.6361   -0.7137    2.8056 N   0  0  0  0  0  0  0  0  0  0  0  0
    1.8564    3.6126    1.3528 C   0  0  0  0  0  0  0  0  0  0  0  0
    1.3986   -2.8184    6.7774 H   0  0  0  0  0  0  0  0  0  0  0  0
    1.8710   -1.0451    5.1394 H   0  0  0  0  0  0  0  0  0  0  0  0
    0.8567    0.5022    3.1770 C   0  0  0  0  0  0  0  0  0  0  0  0
    1.9449    3.0598    0.0827 C   0  0  0  0  0  0  0  0  0  0  0  0
    0.7736    0.8155    4.2125 H   0  0  0  0  0  0  0  0  0  0  0  0
    1.3114    0.9214    0.9147 N   0  0  0  0  0  0  0  0  0  0  0  0
    1.4878    2.7971    2.4065 C   0  0  0  0  0  0  0  0  0  0  0  0
    5.6861   -2.4192   -5.1951 H   0  0  0  0  0  0  0  0  0  0  0  0
    1.6632    1.7127   -0.0898 C   0  0  0  0  0  0  0  0  0  0  0  0
    3.3746   -1.2448    1.6340 Cl  0  0  0  0  0  0  0  0  0  0  0  0
    0.3667   -1.7037    3.7578 C   0  0  0  0  0  0  0  0  0  0  0  0
   -0.6098   -2.6659    3.4922 C   0  0  0  0  0  0  0  0  0  0  0  0
   -0.8675   -3.6591    4.4164 C   0  0  0  0  0  0  0  0  0  0  0  0
   -0.1487   -3.7163    5.6012 C   0  0  0  0  0  0  0  0  0  0  0  0
    0.8279   -2.7695    5.8634 C   0  0  0  0  0  0  0  0  0  0  0  0
    1.0826   -1.7590    4.9549 C   0  0  0  0  0  0  0  0  0  0  0  0
   -1.1674   -2.6179    2.5675 H   0  0  0  0  0  0  0  0  0  0  0  0
   -1.6281   -4.3951    4.2094 H   0  0  0  0  0  0  0  0  0  0  0  0
   -0.3435   -4.5019    6.3138 H   0  0  0  0  0  0  0  0  0  0  0  0
    1.2254    1.4501    2.1564 C   0  0  0  0  0  0  0  0  0  0  0  0
    1.4059    3.1755    3.4119 H   0  0  0  0  0  0  0  0  0  0  0  0
    1.7236    1.2590   -1.0714 H   0  0  0  0  0  0  0  0  0  0  0  0
    2.2286    3.6550   -0.7689 H   0  0  0  0  0  0  0  0  0  0  0  0
    2.0724    4.6565    1.5133 H   0  0  0  0  0  0  0  0  0  0  0  0
  2  3  1  0  0  0  0
  5 17  1  0  0  0  0
  1 27  1  0  0  0  0
 34 38  2  0  0  0  0
 10 23  1  0  0  0  0
 12 16  1  0  0  0  0
  4 19  1  0  0  0  0
  6 25  1  0  0  0  0
 11 12  4  0  0  0  0
 21 22  4  0  0  0  0
 47 48  4  0  0  0  0
 35 42  1  0  0  0  0
 50 51  4  0  0  0  0
 49 50  4  0  0  0  0
  5  6  4  0  0  0  0
 13 14  4  0  0  0  0
 17 24  4  0  0  0  0
 48 49  4  0  0  0  0
 39 44  1  0  0  0  0
 35 39  2  0  0  0  0
 23 24  4  0  0  0  0
 41 55  1  0  0  0  0
 18 21  4  0  0  0  0
 41 44  2  0  0  0  0
 42 55  2  0  0  0  0
 46 51  4  0  0  0  0
 46 47  4  0  0  0  0
 12 13  4  0  0  0  0
 22 23  4  0  0  0  0
  1  6  4  0  0  0  0
  2 11  4  0  0  0  0
  3  4  4  0  0  0  0
 25 26  1  0  0  0  0
 18 19  1  0  0  0  0
  3 14  4  0  0  0  0
  1  2  4  0  0  0  0
 17 18  4  0  0  0  0
  4  5  4  0  0  0  0
 26 27  1  0  0  0  0
 39 58  1  0  0  0  0
 42 56  1  0  0  0  0
 34 46  1  0  0  0  0
 35 59  1  0  0  0  0
 11 15  1  0  0  0  0
 49 54  1  0  0  0  0
 48 53  1  0  0  0  0
 36 50  1  0  0  0  0
 20 24  1  0  0  0  0
 37 51  1  0  0  0  0
 26 33  1  0  0  0  0
 38 55  1  0  0  0  0
  8 22  1  0  0  0  0
 10 43  1  0  0  0  0
 47 52  1  0  0  0  0
  7 21  1  0  0  0  0
  9 13  1  0  0  0  0
 44 57  1  0  0  0  0
 38 40  1  0  0  0  0
 30 32  2  0  0  0  0
 25 29  2  0  0  0  0
 27 28  2  0  0  0  0
 31 14  1  0  0  0  0
 31 19  1  0  0  0  0
 31 32  1  0  0  0  0
 31 34  1  0  0  0  0
 31 41  1  0  0  0  0
 31 45  1  0  0  0  0
M  END
$$$$
