compound_113
  GFN2-xTB geometry (ORCA XTB2, DDCOSMO(water))

 71 79  0  0  0  0  0  0  0  0999 V2000
    4.0998    1.9852   -0.9599 C   0  0  0  0  0  0  0  0  0  0  0  0
    3.6112    0.7392   -0.4980 C   0  0  0  0  0  0  0  0  0  0  0  0
    4.3932   -0.4285   -0.6688 C   0  0  0  0  0  0  0  0  0  0  0  0
    5.6200   -0.3568   -1.3712 C   0  0  0  0  0  0  0  0  0  0  0  0
    6.0612    0.8877   -1.8685 C   0  0  0  0  0  0  0  0  0  0  0  0
    5.3364    2.0818   -1.6248 C   0  0  0  0  0  0  0  0  0  0  0  0
    2.6994    0.7070    0.0879 H   0  0  0  0  0  0  0  0  0  0  0  0
    4.0845   -1.3604   -0.2068 H   0  0  0  0  0  0  0  0  0  0  0  0
    6.2596   -1.2274   -1.4684 H   0  0  0  0  0  0  0  0  0  0  0  0
    7.0222    0.9454   -2.3688 H   0  0  0  0  0  0  0  0  0  0  0  0
    4.8168    0.3315   -4.9966 Cl  0  0  0  0  0  0  0  0  0  0  0  0
    3.5404    2.8898   -0.7458 H   0  0  0  0  0  0  0  0  0  0  0  0
    3.9392    0.4038   -2.7282 Ru  0  0  0  0  0  0  0  0  0  0  0  0
    2.1390    1.6401   -3.7491 Cl  0  0  0  0  0  0  0  0  0  0  0  0
    2.6725   -1.7145   -5.6365 H   0  0  0  0  0  0  0  0  0  0  0  0
    2.7615   -1.4968   -3.2027 P   0  0  0  0  0  0  0  0  0  0  0  0
    3.6625   -3.1144   -3.0969 C   0  0  0  0  0  0  0  0  0  0  0  0
    2.7544   -4.2068   -3.3553 N   0  0  0  0  0  0  0  0  0  0  0  0
    2.1823   -4.1504   -4.6878 C   0  0  0  0  0  0  0  0  0  0  0  0
    1.2469   -3.0458   -4.8660 N   0  0  0  0  0  0  0  0  0  0  0  0
    1.9188   -1.7680   -4.8376 C   0  0  0  0  0  0  0  0  0  0  0  0
    1.3252   -1.9007   -2.1036 C   0  0  0  0  0  0  0  0  0  0  0  0
    0.7364   -3.1602   -2.4942 N   0  0  0  0  0  0  0  0  0  0  0  0
    0.2078   -3.1287   -3.8447 C   0  0  0  0  0  0  0  0  0  0  0  0
    1.6786   -4.2624   -2.3753 C   0  0  0  0  0  0  0  0  0  0  0  0
    4.0889   -3.2233   -2.0946 H   0  0  0  0  0  0  0  0  0  0  0  0
    4.4780   -3.1113   -3.8316 H   0  0  0  0  0  0  0  0  0  0  0  0
    1.1302   -5.1930   -2.5352 H   0  0  0  0  0  0  0  0  0  0  0  0
    2.1089   -4.2604   -1.3734 H   0  0  0  0  0  0  0  0  0  0  0  0
    1.6359   -5.0789   -4.8681 H   0  0  0  0  0  0  0  0  0  0  0  0
    2.9844   -4.0535   -5.4241 H   0  0  0  0  0  0  0  0  0  0  0  0
   -0.3518   -4.0505   -4.0184 H   0  0  0  0  0  0  0  0  0  0  0  0
   -0.4600   -2.2713   -3.9555 H   0  0  0  0  0  0  0  0  0  0  0  0
    1.6727   -1.9641   -1.0675 H   0  0  0  0  0  0  0  0  0  0  0  0
    0.5887   -1.0922   -2.1879 H   0  0  0  0  0  0  0  0  0  0  0  0
    1.1984   -0.9537   -4.9987 H   0  0  0  0  0  0  0  0  0  0  0  0
    5.9381    3.4183   -1.9606 C   0  0  0  0  0  0  0  0  0  0  0  0
    7.0761    3.7217   -0.9626 C   0  0  0  0  0  0  0  0  0  0  0  0
    7.7178    5.0519   -1.2695 C   0  0  0  0  0  0  0  0  0  0  0  0
    7.4343    6.0566   -0.6592 O   0  0  0  0  0  0  0  0  0  0  0  0
    6.6490    3.7782    0.0406 H   0  0  0  0  0  0  0  0  0  0  0  0
    5.1773    4.1994   -1.8968 H   0  0  0  0  0  0  0  0  0  0  0  0
    6.3208    3.4093   -2.9832 H   0  0  0  0  0  0  0  0  0  0  0  0
    8.7782    5.1017   -2.3660 C   0  0  0  0  0  0  0  0  0  0  0  0
    8.5308    4.2493   -3.4672 O   0  0  0  0  0  0  0  0  0  0  0  0
    8.9362    2.9643   -3.4824 C   0  0  0  0  0  0  0  0  0  0  0  0
    8.4160    2.1845   -4.5302 C   0  0  0  0  0  0  0  0  0  0  0  0
    8.7091    0.8342   -4.6345 C   0  0  0  0  0  0  0  0  0  0  0  0
    9.5387    0.2181   -3.6973 C   0  0  0  0  0  0  0  0  0  0  0  0
   10.0872    1.0023   -2.6859 C   0  0  0  0  0  0  0  0  0  0  0  0
    9.7942    2.3469   -2.5730 C   0  0  0  0  0  0  0  0  0  0  0  0
    7.3251    2.9328   -5.6759 Cl  0  0  0  0  0  0  0  0  0  0  0  0
    8.0302   -0.0776   -5.9578 Cl  0  0  0  0  0  0  0  0  0  0  0  0
    8.7932    6.1152   -2.7773 H   0  0  0  0  0  0  0  0  0  0  0  0
   10.7338    0.5356   -1.9604 H   0  0  0  0  0  0  0  0  0  0  0  0
   10.2299    2.9060   -1.7616 H   0  0  0  0  0  0  0  0  0  0  0  0
    9.7523    4.9124   -1.9021 H   0  0  0  0  0  0  0  0  0  0  0  0
    9.7201   -1.2658   -3.6994 C   0  0  0  0  0  0  0  0  0  0  0  0
    8.7416   -1.9984   -3.7015 O   0  0  0  0  0  0  0  0  0  0  0  0
   11.1008   -1.7838   -3.6571 C   0  0  0  0  0  0  0  0  0  0  0  0
   11.2074   -3.2292   -3.2555 C   0  0  0  0  0  0  0  0  0  0  0  0
   12.6152   -3.8047   -3.2827 C   0  0  0  0  0  0  0  0  0  0  0  0
   12.1238   -1.0102   -4.0225 C   0  0  0  0  0  0  0  0  0  0  0  0
   10.5536   -3.8014   -3.9212 H   0  0  0  0  0  0  0  0  0  0  0  0
   10.7845   -3.3303   -2.2519 H   0  0  0  0  0  0  0  0  0  0  0  0
   12.5876   -4.8477   -2.9788 H   0  0  0  0  0  0  0  0  0  0  0  0
   13.2638   -3.2652   -2.5982 H   0  0  0  0  0  0  0  0  0  0  0  0
   13.0332   -3.7525   -4.2846 H   0  0  0  0  0  0  0  0  0  0  0  0
   11.9746    0.0082   -4.3346 H   0  0  0  0  0  0  0  0  0  0  0  0
   13.1319   -1.3828   -4.0427 H   0  0  0  0  0  0  0  0  0  0  0  0
    7.8164    2.9248   -1.0053 H   0  0  0  0  0  0  0  0  0  0  0  0
 45 46  1  0  0  0  0
 58 60  1  0  0  0  0
 50 51  4  0  0  0  0
 49 58  1  0  0  0  0
 47 48  4  0  0  0  0
 49 50  4  0  0  0  0
  6 37  1  0  0  0  0
 60 61  1  0  0  0  0
 46 51  4  0  0  0  0
 48 49  4  0  0  0  0
 38 39  1  0  0  0  0
 46 47  4  0  0  0  0
  1  6  4  0  0  0  0
 61 62  1  0  0  0  0
  4  5  4  0  0  0  0
 44 45  1  0  0  0  0
 16 22  1  0  0  0  0
 39 44  1  0  0  0  0
 48 53  1  0  0  0  0
  3  4  4  0  0  0  0
 16 17  1  0  0  0  0
  2  3  4  0  0  0  0
  1  2  4  0  0  0  0
  5  6  4  0  0  0  0
 16 21  1  0  0  0  0
 47 52  1  0  0  0  0
 37 38  1  0  0  0  0
 63 70  1  0  0  0  0
 63 69  1  0  0  0  0
 51 56  1  0  0  0  0
 50 55  1  0  0  0  0
  2  7  1  0  0  0  0
  4  9  1  0  0  0  0
  1 12  1  0  0  0  0
  5 10  1  0  0  0  0
  3  8  1  0  0  0  0
 62 67  1  0  0  0  0
 62 66  1  0  0  0  0
 62 68  1  0  0  0  0
 38 71  1  0  0  0  0
 25 29  1  0  0  0  0
 38 41  1  0  0  0  0
 37 43  1  0  0  0  0
 25 28  1  0  0  0  0
 37 42  1  0  0  0  0
 24 32  1  0  0  0  0
 19 30  1  0  0  0  0
 24 33  1  0  0  0  0
 19 31  1  0  0  0  0
 61 65  1  0  0  0  0
 44 54  1  0  0  0  0
 61 64  1  0  0  0  0
 22 34  1  0  0  0  0
 17 26  1  0  0  0  0
 44 57  1  0  0  0  0
 22 35  1  0  0  0  0
 17 27  1  0  0  0  0
 21 36  1  0  0  0  0
 15 21  1  0  0  0  0
 17 18  1  0  0  0  0
 20 21  1  0  0  0  0
 22 23  1  0  0  0  0
 23 24  1  0  0  0  0
 18 19  1  0  0  0  0
 23 25  1  0  0  0  0
 18 25  1  0  0  0  0
 19 20  1  0  0  0  0
 20 24  1  0  0  0  0
 39 40  2  0  0  0  0
 58 59  2  0  0  0  0
 60 63  2  0  0  0  0
 13 14  1  0  0  0  0
 13 11  1  0  0  0  0
 13  1  1  0  0  0  0
 13  2  1  0  0  0  0
 13  3  1  0  0  0  0
 13  4  1  0  0  0  0
 13  5  1  0  0  0  0
 13 16  1  0  0  0  0
M  END
$$$$
