compound_8
  GFN2-xTB geometry (ORCA XTB2, DDCOSMO(water))

 62 70  0  0  0  0  0  0  0  0999 V2000
   -0.8179   -0.8916   -2.1045 C   0  0  0  0  0  0  0  0  0  0  0  0
   -1.0932   -0.8177   -0.7151 C   0  0  0  0  0  0  0  0  0  0  0  0
   -0.0990   -1.3137    0.1680 C   0  0  0  0  0  0  0  0  0  0  0  0
    1.0932   -1.8462   -0.3668 C   0  0  0  0  0  0  0  0  0  0  0  0
    1.3489   -1.9384   -1.7734 C   0  0  0  0  0  0  0  0  0  0  0  0
    0.3676   -1.4436   -2.6160 C   0  0  0  0  0  0  0  0  0  0  0  0
    4.4614   -3.7910    0.7769 H   0  0  0  0  0  0  0  0  0  0  0  0
    5.8758   -4.4939   -1.1137 H   0  0  0  0  0  0  0  0  0  0  0  0
   -1.4804   -0.9526    3.0972 H   0  0  0  0  0  0  0  0  0  0  0  0
    5.2262   -4.0213   -3.4260 H   0  0  0  0  0  0  0  0  0  0  0  0
   -2.2726   -0.3264   -0.1308 C   0  0  0  0  0  0  0  0  0  0  0  0
   -2.4021   -0.3670    1.2391 C   0  0  0  0  0  0  0  0  0  0  0  0
   -1.3760   -0.8999    2.0219 C   0  0  0  0  0  0  0  0  0  0  0  0
   -0.2536   -1.3617    1.5024 N   0  0  0  0  0  0  0  0  0  0  0  0
   -3.0516    0.0619   -0.7691 H   0  0  0  0  0  0  0  0  0  0  0  0
   -3.2966    0.0000    1.7143 H   0  0  0  0  0  0  0  0  0  0  0  0
    2.6096   -2.6109   -1.8576 C   0  0  0  0  0  0  0  0  0  0  0  0
    2.9969   -2.8722   -0.5087 C   0  0  0  0  0  0  0  0  0  0  0  0
    2.0625   -2.3781    0.3723 N   0  0  0  0  0  0  0  0  0  0  0  0
    3.1162   -2.8256   -3.9302 H   0  0  0  0  0  0  0  0  0  0  0  0
    4.1740   -3.5578   -0.2353 C   0  0  0  0  0  0  0  0  0  0  0  0
    4.9575   -3.9586   -1.2997 C   0  0  0  0  0  0  0  0  0  0  0  0
    4.5896   -3.6930   -2.6182 C   0  0  0  0  0  0  0  0  0  0  0  0
    3.4163   -3.0243   -2.9105 C   0  0  0  0  0  0  0  0  0  0  0  0
    0.2895   -1.3919   -4.0883 C   0  0  0  0  0  0  0  0  0  0  0  0
   -0.9249   -0.8185   -4.3715 N   0  0  0  0  0  0  0  0  0  0  0  0
   -1.6515   -0.4986   -3.2182 C   0  0  0  0  0  0  0  0  0  0  0  0
   -2.7629    0.0059   -3.2463 O   0  0  0  0  0  0  0  0  0  0  0  0
    1.0972   -1.7595   -4.9221 O   0  0  0  0  0  0  0  0  0  0  0  0
    5.4318   -2.5963    2.6995 H   0  0  0  0  0  0  0  0  0  0  0  0
    1.3605   -2.3524    2.3594 Ru  0  0  0  0  0  0  0  0  0  0  0  0
    4.2809   -0.9578    1.4383 H   0  0  0  0  0  0  0  0  0  0  0  0
   -1.2662   -0.6543   -5.3063 H   0  0  0  0  0  0  0  0  0  0  0  0
    2.4654   -0.3185    2.7545 S   0  0  0  0  0  0  0  0  0  0  0  0
    2.3855   -0.1162    4.6009 C   0  0  0  0  0  0  0  0  0  0  0  0
    1.0860   -0.6339    5.1748 C   0  0  0  0  0  0  0  0  0  0  0  0
    0.4831   -2.2381    4.5078 S   0  0  0  0  0  0  0  0  0  0  0  0
    1.4689   -3.5001    5.4079 C   0  0  0  0  0  0  0  0  0  0  0  0
    2.9303   -3.5913    5.0392 C   0  0  0  0  0  0  0  0  0  0  0  0
    3.2650   -3.4476    3.2106 S   0  0  0  0  0  0  0  0  0  0  0  0
    4.5824   -2.1532    3.2195 C   0  0  0  0  0  0  0  0  0  0  0  0
    4.2006   -0.8634    2.5232 C   0  0  0  0  0  0  0  0  0  0  0  0
    4.8386   -0.0444    2.8563 H   0  0  0  0  0  0  0  0  0  0  0  0
    2.4613    0.9567    4.7768 H   0  0  0  0  0  0  0  0  0  0  0  0
    3.2523   -0.6064    5.0297 H   0  0  0  0  0  0  0  0  0  0  0  0
    0.2686    0.0514    4.9502 H   0  0  0  0  0  0  0  0  0  0  0  0
    1.1638   -0.7528    6.2546 H   0  0  0  0  0  0  0  0  0  0  0  0
    0.9461   -4.4281    5.1804 H   0  0  0  0  0  0  0  0  0  0  0  0
    1.3592   -3.2814    6.4695 H   0  0  0  0  0  0  0  0  0  0  0  0
    3.3173   -4.5716    5.3160 H   0  0  0  0  0  0  0  0  0  0  0  0
    3.5118   -2.8307    5.5502 H   0  0  0  0  0  0  0  0  0  0  0  0
    4.8691   -1.9858    4.2542 H   0  0  0  0  0  0  0  0  0  0  0  0
    0.2449   -4.2804    1.8133 S   0  0  0  0  0  0  0  0  0  0  0  0
   -0.1787   -4.2809    0.4054 O   0  0  0  0  0  0  0  0  0  0  0  0
    1.1392   -5.8312    2.1030 C   0  0  0  0  0  0  0  0  0  0  0  0
   -1.2439   -4.6440    2.7867 C   0  0  0  0  0  0  0  0  0  0  0  0
   -1.7525   -5.4741    2.3094 H   0  0  0  0  0  0  0  0  0  0  0  0
   -1.8796   -3.7643    2.7679 H   0  0  0  0  0  0  0  0  0  0  0  0
   -0.9580   -4.8900    3.8019 H   0  0  0  0  0  0  0  0  0  0  0  0
    1.3755   -5.8978    3.1592 H   0  0  0  0  0  0  0  0  0  0  0  0
    2.0458   -5.8044    1.5060 H   0  0  0  0  0  0  0  0  0  0  0  0
    0.5126   -6.6559    1.7830 H   0  0  0  0  0  0  0  0  0  0  0  0
  2  3  1  0  0  0  0
  5 17  1  0  0  0  0
  1 27  1  0  0  0  0
  4 19  1  0  0  0  0
  6 25  1  0  0  0  0
 11 12  4  0  0  0  0
 21 22  4  0  0  0  0
 23 24  4  0  0  0  0
 13 14  4  0  0  0  0
  5  6  4  0  0  0  0
 18 21  4  0  0  0  0
 17 24  4  0  0  0  0
 22 23  4  0  0  0  0
 12 13  4  0  0  0  0
 38 39  1  0  0  0  0
 35 36  1  0  0  0  0
 41 42  1  0  0  0  0
  1  6  4  0  0  0  0
  2 11  4  0  0  0  0
  3 14  4  0  0  0  0
 25 26  1  0  0  0  0
  3  4  4  0  0  0  0
 18 19  1  0  0  0  0
  1  2  4  0  0  0  0
 17 18  4  0  0  0  0
 53 55  1  0  0  0  0
 53 56  1  0  0  0  0
  4  5  4  0  0  0  0
 12 16  1  0  0  0  0
  7 21  1  0  0  0  0
 26 27  1  0  0  0  0
  8 22  1  0  0  0  0
 26 33  1  0  0  0  0
 11 15  1  0  0  0  0
 10 23  1  0  0  0  0
 20 24  1  0  0  0  0
  9 13  1  0  0  0  0
 56 59  1  0  0  0  0
 34 42  1  0  0  0  0
 55 62  1  0  0  0  0
 35 45  1  0  0  0  0
 56 57  1  0  0  0  0
 55 60  1  0  0  0  0
 39 51  1  0  0  0  0
 56 58  1  0  0  0  0
 55 61  1  0  0  0  0
 37 38  1  0  0  0  0
 41 52  1  0  0  0  0
 36 37  1  0  0  0  0
 36 47  1  0  0  0  0
 38 48  1  0  0  0  0
 38 49  1  0  0  0  0
 39 50  1  0  0  0  0
 35 44  1  0  0  0  0
 30 41  1  0  0  0  0
 36 46  1  0  0  0  0
 42 43  1  0  0  0  0
 40 41  1  0  0  0  0
 32 42  1  0  0  0  0
 34 35  1  0  0  0  0
 39 40  1  0  0  0  0
 25 29  2  0  0  0  0
 27 28  2  0  0  0  0
 53 54  2  0  0  0  0
 31 40  1  0  0  0  0
 31 14  1  0  0  0  0
 31 19  1  0  0  0  0
 31 34  1  0  0  0  0
 31 37  1  0  0  0  0
 31 53  1  0  0  0  0
M  END
$$$$
