compound_129
  GFN2-xTB geometry (ORCA XTB2, DDCOSMO(water))

 74 82  0  0  0  0  0  0  0  0999 V2000
   -3.8322   -4.9150   -0.0446 C   0  0  0  0  0  0  0  0  0  0  0  0
   -4.7482   -5.1962    0.9409 C   0  0  0  0  0  0  0  0  0  0  0  0
   -4.3379   -5.9451    2.0858 C   0  0  0  0  0  0  0  0  0  0  0  0
   -3.0573   -6.4235    2.1740 C   0  0  0  0  0  0  0  0  0  0  0  0
   -2.1234   -6.1835    1.1497 C   0  0  0  0  0  0  0  0  0  0  0  0
   -2.5077   -5.3723    0.0554 C   0  0  0  0  0  0  0  0  0  0  0  0
   -4.1190   -4.3532   -0.9163 H   0  0  0  0  0  0  0  0  0  0  0  0
   -9.2992    0.6384    1.6868 H   0  0  0  0  0  0  0  0  0  0  0  0
   -2.7569   -7.0118    3.0259 H   0  0  0  0  0  0  0  0  0  0  0  0
  -10.1725   -0.5931    2.3573 H   0  0  0  0  0  0  0  0  0  0  0  0
   -5.2069   -6.1511    3.1289 O   0  0  0  0  0  0  0  0  0  0  0  0
   -6.2961   -7.0331    2.8587 C   0  0  0  0  0  0  0  0  0  0  0  0
   -6.8774   -6.6954    2.0003 H   0  0  0  0  0  0  0  0  0  0  0  0
   -6.9043   -7.0257    3.7598 H   0  0  0  0  0  0  0  0  0  0  0  0
   -5.9269   -8.0456    2.6740 H   0  0  0  0  0  0  0  0  0  0  0  0
   -6.0408   -4.7985    0.9284 O   0  0  0  0  0  0  0  0  0  0  0  0
   -6.5377   -4.0584   -0.1801 C   0  0  0  0  0  0  0  0  0  0  0  0
   -8.0387   -3.8377    0.0330 C   0  0  0  0  0  0  0  0  0  0  0  0
   -6.0109   -3.0951   -0.2512 H   0  0  0  0  0  0  0  0  0  0  0  0
   -8.3732   -4.4474    0.8757 H   0  0  0  0  0  0  0  0  0  0  0  0
   -8.5726   -4.1664   -0.8643 H   0  0  0  0  0  0  0  0  0  0  0  0
   -6.3550   -4.6227   -1.1000 H   0  0  0  0  0  0  0  0  0  0  0  0
   -8.3763   -2.4358    0.2897 N   0  0  0  0  0  0  0  0  0  0  0  0
   -7.9246   -1.8692   -0.4415 H   0  0  0  0  0  0  0  0  0  0  0  0
   -4.2562    0.2852   -1.6829 H   0  0  0  0  0  0  0  0  0  0  0  0
   -9.8258   -2.2074    0.1578 C   0  0  0  0  0  0  0  0  0  0  0  0
  -10.0411   -0.7123    0.3285 C   0  0  0  0  0  0  0  0  0  0  0  0
   -9.4782   -0.3672    1.6383 N   0  0  0  0  0  0  0  0  0  0  0  0
  -10.1856   -2.5475   -0.8171 H   0  0  0  0  0  0  0  0  0  0  0  0
  -10.3351   -2.7613    0.9526 H   0  0  0  0  0  0  0  0  0  0  0  0
  -11.1019   -0.4556    0.2712 H   0  0  0  0  0  0  0  0  0  0  0  0
   -9.4926   -0.1656   -0.4461 H   0  0  0  0  0  0  0  0  0  0  0  0
   -0.9002   -6.7707    1.2099 N   0  0  0  0  0  0  0  0  0  0  0  0
   -0.1263   -6.5951    0.1757 C   0  0  0  0  0  0  0  0  0  0  0  0
   -0.3387   -5.8036   -0.8750 N   0  0  0  0  0  0  0  0  0  0  0  0
   -1.4814   -5.1281   -0.9136 C   0  0  0  0  0  0  0  0  0  0  0  0
   -5.0496   -3.0053    2.7738 H   0  0  0  0  0  0  0  0  0  0  0  0
    0.8201   -7.1222    0.1793 H   0  0  0  0  0  0  0  0  0  0  0  0
   -7.1281   -4.3123    3.0400 H   0  0  0  0  0  0  0  0  0  0  0  0
   -1.6398   -4.2641   -1.9472 N   0  0  0  0  0  0  0  0  0  0  0  0
   -2.3290   -3.0438   -1.8859 C   0  0  0  0  0  0  0  0  0  0  0  0
   -2.3893   -2.3399   -0.6831 C   0  0  0  0  0  0  0  0  0  0  0  0
   -3.0841   -1.1427   -0.6160 C   0  0  0  0  0  0  0  0  0  0  0  0
   -3.7137   -0.6447   -1.7582 C   0  0  0  0  0  0  0  0  0  0  0  0
   -3.6211   -1.3322   -2.9516 C   0  0  0  0  0  0  0  0  0  0  0  0
   -2.9271   -2.5281   -3.0282 C   0  0  0  0  0  0  0  0  0  0  0  0
   -1.8835   -2.7419    0.1800 H   0  0  0  0  0  0  0  0  0  0  0  0
   -0.9431   -4.3518   -2.6754 H   0  0  0  0  0  0  0  0  0  0  0  0
   -4.9850   -0.5979    3.4229 H   0  0  0  0  0  0  0  0  0  0  0  0
   -4.0973   -0.9302   -3.8312 H   0  0  0  0  0  0  0  0  0  0  0  0
   -2.8534   -3.0638   -3.9601 H   0  0  0  0  0  0  0  0  0  0  0  0
   -7.7139   -1.4344    2.0588 Ru  0  0  0  0  0  0  0  0  0  0  0  0
   -5.9082   -1.1617    3.5124 C   0  0  0  0  0  0  0  0  0  0  0  0
   -7.0391   -0.5763    4.0964 C   0  0  0  0  0  0  0  0  0  0  0  0
   -8.2197   -1.3378    4.2910 C   0  0  0  0  0  0  0  0  0  0  0  0
   -8.2935   -2.6788    3.8642 C   0  0  0  0  0  0  0  0  0  0  0  0
   -7.1393   -3.2577    3.2814 C   0  0  0  0  0  0  0  0  0  0  0  0
   -5.9504   -2.5162    3.1247 C   0  0  0  0  0  0  0  0  0  0  0  0
   -1.3795   -0.7986    1.4167 H   0  0  0  0  0  0  0  0  0  0  0  0
   -2.7691   -1.7214    2.0559 H   0  0  0  0  0  0  0  0  0  0  0  0
   -6.6206    0.0848    0.5180 Cl  0  0  0  0  0  0  0  0  0  0  0  0
   -9.1641   -3.2854    4.0811 H   0  0  0  0  0  0  0  0  0  0  0  0
   -3.2064   -0.3888    0.5204 O   0  0  0  0  0  0  0  0  0  0  0  0
   -2.4451   -0.7569    1.6535 C   0  0  0  0  0  0  0  0  0  0  0  0
   -2.6191    0.0267    2.3886 H   0  0  0  0  0  0  0  0  0  0  0  0
   -9.2149   -0.5415    5.0783 C   0  0  0  0  0  0  0  0  0  0  0  0
   -8.7073    0.9042    4.9505 C   0  0  0  0  0  0  0  0  0  0  0  0
   -7.1896    0.7789    4.7275 C   0  0  0  0  0  0  0  0  0  0  0  0
   -6.6481    0.7872    5.6788 H   0  0  0  0  0  0  0  0  0  0  0  0
   -6.7831    1.5821    4.1115 H   0  0  0  0  0  0  0  0  0  0  0  0
   -8.9370    1.5025    5.8292 H   0  0  0  0  0  0  0  0  0  0  0  0
   -9.1589    1.3852    4.0836 H   0  0  0  0  0  0  0  0  0  0  0  0
   -9.1626   -0.8765    6.1187 H   0  0  0  0  0  0  0  0  0  0  0  0
  -10.2433   -0.6631    4.7455 H   0  0  0  0  0  0  0  0  0  0  0  0
  6 36  1  0  0  0  0
  2 16  1  0  0  0  0
 43 63  1  0  0  0  0
 34 35  1  0  0  0  0
  3  4  4  0  0  0  0
  3 11  1  0  0  0  0
  1  2  4  0  0  0  0
 44 45  4  0  0  0  0
 45 46  4  0  0  0  0
 42 43  4  0  0  0  0
 55 66  1  0  0  0  0
 41 46  4  0  0  0  0
 54 68  1  0  0  0  0
 36 40  1  0  0  0  0
 41 42  4  0  0  0  0
  5 33  1  0  0  0  0
 43 44  4  0  0  0  0
 53 54  4  0  0  0  0
  1  6  4  0  0  0  0
  4  5  4  0  0  0  0
 26 27  1  0  0  0  0
 55 56  4  0  0  0  0
 53 58  4  0  0  0  0
 57 58  4  0  0  0  0
 63 64  1  0  0  0  0
  5  6  4  0  0  0  0
 56 57  4  0  0  0  0
 54 55  4  0  0  0  0
 16 17  1  0  0  0  0
 17 18  1  0  0  0  0
 11 12  1  0  0  0  0
 66 67  1  0  0  0  0
 67 68  1  0  0  0  0
  2  3  4  0  0  0  0
  1  7  1  0  0  0  0
 46 51  1  0  0  0  0
  4  9  1  0  0  0  0
 45 50  1  0  0  0  0
 42 47  1  0  0  0  0
 25 44  1  0  0  0  0
 40 41  1  0  0  0  0
 39 57  1  0  0  0  0
 40 48  1  0  0  0  0
 56 62  1  0  0  0  0
 34 38  1  0  0  0  0
 37 58  1  0  0  0  0
 49 53  1  0  0  0  0
 12 14  1  0  0  0  0
 67 71  1  0  0  0  0
 66 74  1  0  0  0  0
 64 65  1  0  0  0  0
 67 72  1  0  0  0  0
 12 13  1  0  0  0  0
 68 70  1  0  0  0  0
 59 64  1  0  0  0  0
 18 20  1  0  0  0  0
 27 31  1  0  0  0  0
 12 15  1  0  0  0  0
 26 29  1  0  0  0  0
 60 64  1  0  0  0  0
  8 28  1  0  0  0  0
 66 73  1  0  0  0  0
 26 30  1  0  0  0  0
 17 22  1  0  0  0  0
 68 69  1  0  0  0  0
 18 21  1  0  0  0  0
 27 32  1  0  0  0  0
 10 28  1  0  0  0  0
 17 19  1  0  0  0  0
 23 24  1  0  0  0  0
 18 23  1  0  0  0  0
 27 28  1  0  0  0  0
 23 26  1  0  0  0  0
 33 34  2  0  0  0  0
 35 36  2  0  0  0  0
 52 23  1  0  0  0  0
 52 28  1  0  0  0  0
 52 57  1  0  0  0  0
 52 56  1  0  0  0  0
 52 58  1  0  0  0  0
 52 61  1  0  0  0  0
 52 53  1  0  0  0  0
M  END
$$$$
