compound_60
  GFN2-xTB geometry (ORCA XTB2, DDCOSMO(water))

 65 71  0  0  0  0  0  0  0  0999 V2000
   -0.5739   -3.0031    0.8600 Ru  0  0  0  0  0  0  0  0  0  0  0  0
    1.0508   -3.4210   -1.5306 C   0  0  0  0  0  0  0  0  0  0  0  0
    1.8836   -4.1476   -2.4029 C   0  0  0  0  0  0  0  0  0  0  0  0
    1.9566   -5.5284   -2.2706 C   0  0  0  0  0  0  0  0  0  0  0  0
    1.2435   -6.1531   -1.2592 C   0  0  0  0  0  0  0  0  0  0  0  0
    0.5270   -5.3724   -0.3760 C   0  0  0  0  0  0  0  0  0  0  0  0
    0.4438   -4.0480   -0.4958 N   0  0  0  0  0  0  0  0  0  0  0  0
    2.1782   -5.2995    2.1405 H   0  0  0  0  0  0  0  0  0  0  0  0
    2.5695   -6.0869   -2.9592 H   0  0  0  0  0  0  0  0  0  0  0  0
    1.2674   -7.2225   -1.1393 H   0  0  0  0  0  0  0  0  0  0  0  0
   -0.0209   -5.8160    0.4461 H   0  0  0  0  0  0  0  0  0  0  0  0
    0.6678   -2.0191   -1.6104 C   0  0  0  0  0  0  0  0  0  0  0  0
    0.9180   -1.1579   -2.6803 C   0  0  0  0  0  0  0  0  0  0  0  0
    0.4143    0.1271   -2.6540 C   0  0  0  0  0  0  0  0  0  0  0  0
   -0.3544    0.5508   -1.5805 C   0  0  0  0  0  0  0  0  0  0  0  0
   -0.6362   -0.3168   -0.5366 C   0  0  0  0  0  0  0  0  0  0  0  0
   -0.1350   -1.6082   -0.5279 C   0  0  0  0  0  0  0  0  0  0  0  0
    1.4675   -1.5044   -3.5408 H   0  0  0  0  0  0  0  0  0  0  0  0
    0.6041    0.7953   -3.4796 H   0  0  0  0  0  0  0  0  0  0  0  0
   -0.7540    1.5540   -1.5651 H   0  0  0  0  0  0  0  0  0  0  0  0
   -1.2760    0.0197    0.2682 H   0  0  0  0  0  0  0  0  0  0  0  0
   -2.6208   -3.5023   -0.4169 Cl  0  0  0  0  0  0  0  0  0  0  0  0
    0.1577   -1.6999    2.5087 C   0  0  0  0  0  0  0  0  0  0  0  0
   -1.2299   -1.8295    2.7598 C   0  0  0  0  0  0  0  0  0  0  0  0
   -1.7438   -3.1423    2.8478 C   0  0  0  0  0  0  0  0  0  0  0  0
   -0.8975   -4.2762    2.9173 C   0  0  0  0  0  0  0  0  0  0  0  0
    0.4802   -4.1405    2.7403 C   0  0  0  0  0  0  0  0  0  0  0  0
    0.9945   -2.8440    2.4400 C   0  0  0  0  0  0  0  0  0  0  0  0
   -1.5650    0.2623    2.6282 H   0  0  0  0  0  0  0  0  0  0  0  0
    0.6015   -0.7107    2.4578 H   0  0  0  0  0  0  0  0  0  0  0  0
   -2.8047   -3.2833    3.0327 H   0  0  0  0  0  0  0  0  0  0  0  0
    2.0683   -2.7110    2.3518 H   0  0  0  0  0  0  0  0  0  0  0  0
   -1.3278   -5.2417    3.1515 H   0  0  0  0  0  0  0  0  0  0  0  0
   -2.0876   -0.6137    3.0265 C   0  0  0  0  0  0  0  0  0  0  0  0
   -3.4583   -0.7038    2.3516 C   0  0  0  0  0  0  0  0  0  0  0  0
   -2.2387   -0.4362    4.5418 C   0  0  0  0  0  0  0  0  0  0  0  0
   -1.2639   -0.3260    5.0100 H   0  0  0  0  0  0  0  0  0  0  0  0
   -2.7384   -1.2989    4.9763 H   0  0  0  0  0  0  0  0  0  0  0  0
   -2.8312    0.4499    4.7516 H   0  0  0  0  0  0  0  0  0  0  0  0
   -3.3598   -1.0391    1.3165 H   0  0  0  0  0  0  0  0  0  0  0  0
   -3.9412    0.2694    2.3524 H   0  0  0  0  0  0  0  0  0  0  0  0
   -4.1093   -1.4040    2.8699 H   0  0  0  0  0  0  0  0  0  0  0  0
    1.4200   -5.2909    2.9206 C   0  0  0  0  0  0  0  0  0  0  0  0
    0.8897   -6.2393    2.9162 H   0  0  0  0  0  0  0  0  0  0  0  0
    1.9268   -5.1831    3.8798 H   0  0  0  0  0  0  0  0  0  0  0  0
    2.6071   -3.5448   -3.3964 O   0  0  0  0  0  0  0  0  0  0  0  0
    3.7186   -2.7591   -2.9477 C   0  0  0  0  0  0  0  0  0  0  0  0
    4.8461   -3.6328   -2.4022 C   0  0  0  0  0  0  0  0  0  0  0  0
    6.0250   -2.8109   -1.8799 C   0  0  0  0  0  0  0  0  0  0  0  0
    6.7324   -1.9546   -2.9319 C   0  0  0  0  0  0  0  0  0  0  0  0
    7.3358   -2.7666   -4.0765 C   0  0  0  0  0  0  0  0  0  0  0  0
    8.1613   -1.8878   -5.0093 C   0  0  0  0  0  0  0  0  0  0  0  0
    3.3924   -2.0425   -2.1858 H   0  0  0  0  0  0  0  0  0  0  0  0
    4.0367   -2.2195   -3.8403 H   0  0  0  0  0  0  0  0  0  0  0  0
    5.1771   -4.3179   -3.1832 H   0  0  0  0  0  0  0  0  0  0  0  0
    4.4484   -4.2334   -1.5802 H   0  0  0  0  0  0  0  0  0  0  0  0
    6.7515   -3.5000   -1.4443 H   0  0  0  0  0  0  0  0  0  0  0  0
    5.6674   -2.1553   -1.0829 H   0  0  0  0  0  0  0  0  0  0  0  0
    7.5358   -1.4057   -2.4344 H   0  0  0  0  0  0  0  0  0  0  0  0
    6.0391   -1.2166   -3.3376 H   0  0  0  0  0  0  0  0  0  0  0  0
    6.5411   -3.2428   -4.6522 H   0  0  0  0  0  0  0  0  0  0  0  0
    7.9709   -3.5540   -3.6646 H   0  0  0  0  0  0  0  0  0  0  0  0
    8.9816   -1.4202   -4.4689 H   0  0  0  0  0  0  0  0  0  0  0  0
    7.5432   -1.1014   -5.4369 H   0  0  0  0  0  0  0  0  0  0  0  0
    8.5782   -2.4764   -5.8230 H   0  0  0  0  0  0  0  0  0  0  0  0
  2 12  1  0  0  0  0
  3 46  1  0  0  0  0
  5  6  4  0  0  0  0
 13 14  4  0  0  0  0
 16 17  4  0  0  0  0
  4  5  4  0  0  0  0
 15 16  4  0  0  0  0
 14 15  4  0  0  0  0
 27 43  1  0  0  0  0
  3  4  4  0  0  0  0
 26 27  4  0  0  0  0
  6  7  4  0  0  0  0
 12 13  4  0  0  0  0
 24 34  1  0  0  0  0
  2  3  4  0  0  0  0
 12 17  4  0  0  0  0
 24 25  4  0  0  0  0
 51 52  1  0  0  0  0
 47 48  1  0  0  0  0
 50 51  1  0  0  0  0
 23 24  4  0  0  0  0
 25 26  4  0  0  0  0
 48 49  1  0  0  0  0
 49 50  1  0  0  0  0
  2  7  4  0  0  0  0
 34 35  1  0  0  0  0
 23 28  4  0  0  0  0
 34 36  1  0  0  0  0
 27 28  4  0  0  0  0
 46 47  1  0  0  0  0
  5 10  1  0  0  0  0
  4  9  1  0  0  0  0
 13 18  1  0  0  0  0
 14 19  1  0  0  0  0
 15 20  1  0  0  0  0
 16 21  1  0  0  0  0
 26 33  1  0  0  0  0
  6 11  1  0  0  0  0
 23 30  1  0  0  0  0
 28 32  1  0  0  0  0
 25 31  1  0  0  0  0
 35 41  1  0  0  0  0
 36 39  1  0  0  0  0
 43 44  1  0  0  0  0
 36 37  1  0  0  0  0
 52 65  1  0  0  0  0
 35 42  1  0  0  0  0
 36 38  1  0  0  0  0
 52 64  1  0  0  0  0
 52 63  1  0  0  0  0
  8 43  1  0  0  0  0
 43 45  1  0  0  0  0
 48 55  1  0  0  0  0
 47 54  1  0  0  0  0
 51 61  1  0  0  0  0
 50 60  1  0  0  0  0
 49 57  1  0  0  0  0
 49 58  1  0  0  0  0
 51 62  1  0  0  0  0
 35 40  1  0  0  0  0
 50 59  1  0  0  0  0
 48 56  1  0  0  0  0
 29 34  1  0  0  0  0
 47 53  1  0  0  0  0
  1  7  1  0  0  0  0
  1 22  1  0  0  0  0
  1 26  1  0  0  0  0
  1 17  1  0  0  0  0
  1 23  1  0  0  0  0
  1 25  1  0  0  0  0
  1 28  1  0  0  0  0
M  END
$$$$
