compound_105
  GFN2-xTB geometry (ORCA XTB2, DDCOSMO(water))

 41 46  0  0  0  0  0  0  0  0999 V2000
    9.6157   -3.9138   -0.4110 Ru  0  0  0  0  0  0  0  0  0  0  0  0
   11.6136   -4.1591   -1.5182 C   0  0  0  0  0  0  0  0  0  0  0  0
   10.5615   -4.5728   -2.3513 C   0  0  0  0  0  0  0  0  0  0  0  0
    9.6515   -5.5916   -1.9383 C   0  0  0  0  0  0  0  0  0  0  0  0
    9.8395   -6.1504   -0.6546 C   0  0  0  0  0  0  0  0  0  0  0  0
   10.9298   -5.7664    0.1685 C   0  0  0  0  0  0  0  0  0  0  0  0
   11.8327   -4.7787   -0.2539 C   0  0  0  0  0  0  0  0  0  0  0  0
    6.8433   -3.5492    0.7021 N   0  0  0  0  0  0  0  0  0  0  0  0
    8.4755   -5.3688   -3.6858 H   0  0  0  0  0  0  0  0  0  0  0  0
    5.8516   -3.7542    1.5904 C   0  0  0  0  0  0  0  0  0  0  0  0
   11.0983   -6.2819    1.1067 H   0  0  0  0  0  0  0  0  0  0  0  0
    4.6172   -3.1945    1.3984 C   0  0  0  0  0  0  0  0  0  0  0  0
    5.9370   -0.5482   -1.8656 H   0  0  0  0  0  0  0  0  0  0  0  0
    8.0038   -4.1611    0.9489 O   0  0  0  0  0  0  0  0  0  0  0  0
    4.2169   -0.9926   -1.9324 H   0  0  0  0  0  0  0  0  0  0  0  0
   13.1021   -5.0141    1.4556 H   0  0  0  0  0  0  0  0  0  0  0  0
    9.1946   -6.9546   -0.3203 H   0  0  0  0  0  0  0  0  0  0  0  0
   10.4706   -4.1540   -3.3491 H   0  0  0  0  0  0  0  0  0  0  0  0
   13.0328   -4.4073    0.5573 C   0  0  0  0  0  0  0  0  0  0  0  0
   12.3297   -3.4261   -1.8740 H   0  0  0  0  0  0  0  0  0  0  0  0
    7.9858   -2.5546   -1.4845 S   0  0  0  0  0  0  0  0  0  0  0  0
    5.2291   -1.3754   -1.8689 C   0  0  0  0  0  0  0  0  0  0  0  0
    8.6061   -6.1140   -2.8944 C   0  0  0  0  0  0  0  0  0  0  0  0
    5.4558   -1.9776   -2.7464 H   0  0  0  0  0  0  0  0  0  0  0  0
   12.9733   -3.3583    0.8526 H   0  0  0  0  0  0  0  0  0  0  0  0
   10.2043   -1.9841    0.9353 Cl  0  0  0  0  0  0  0  0  0  0  0  0
    3.8399   -3.3710    2.1210 H   0  0  0  0  0  0  0  0  0  0  0  0
    3.4247   -1.9654    0.1014 H   0  0  0  0  0  0  0  0  0  0  0  0
    6.6639   -2.7831   -0.3954 C   0  0  0  0  0  0  0  0  0  0  0  0
    5.4075   -2.1958   -0.6399 C   0  0  0  0  0  0  0  0  0  0  0  0
    6.1181   -4.3780    2.4283 H   0  0  0  0  0  0  0  0  0  0  0  0
    4.3919   -2.4094    0.2697 C   0  0  0  0  0  0  0  0  0  0  0  0
   13.9341   -4.5342   -0.0399 H   0  0  0  0  0  0  0  0  0  0  0  0
    7.2531   -6.3249   -2.2140 C   0  0  0  0  0  0  0  0  0  0  0  0
    7.2788   -7.1688   -1.5308 H   0  0  0  0  0  0  0  0  0  0  0  0
    6.4908   -6.5139   -2.9636 H   0  0  0  0  0  0  0  0  0  0  0  0
    6.9717   -5.4310   -1.6557 H   0  0  0  0  0  0  0  0  0  0  0  0
    9.1169   -7.4177   -3.5186 C   0  0  0  0  0  0  0  0  0  0  0  0
   10.0610   -7.2507   -4.0302 H   0  0  0  0  0  0  0  0  0  0  0  0
    8.3903   -7.7869   -4.2361 H   0  0  0  0  0  0  0  0  0  0  0  0
    9.2655   -8.1725   -2.7508 H   0  0  0  0  0  0  0  0  0  0  0  0
 10 12  2  0  0  0  0
 22 30  1  0  0  0  0
 30 32  2  0  0  0  0
  8 10  1  0  0  0  0
  7 19  1  0  0  0  0
  8 29  1  0  0  0  0
 12 32  1  0  0  0  0
  4 23  1  0  0  0  0
  8 14  1  0  0  0  0
  6  7  4  0  0  0  0
  2  3  4  0  0  0  0
 29 30  1  0  0  0  0
  4  5  4  0  0  0  0
 23 34  1  0  0  0  0
  5  6  4  0  0  0  0
 23 38  1  0  0  0  0
  2  7  4  0  0  0  0
  3  4  4  0  0  0  0
 12 27  1  0  0  0  0
 28 32  1  0  0  0  0
 10 31  1  0  0  0  0
  6 11  1  0  0  0  0
  5 17  1  0  0  0  0
 15 22  1  0  0  0  0
  2 20  1  0  0  0  0
 34 36  1  0  0  0  0
 38 40  1  0  0  0  0
  3 18  1  0  0  0  0
 34 35  1  0  0  0  0
 16 19  1  0  0  0  0
 38 39  1  0  0  0  0
 38 41  1  0  0  0  0
 22 24  1  0  0  0  0
 19 33  1  0  0  0  0
 13 22  1  0  0  0  0
 34 37  1  0  0  0  0
 19 25  1  0  0  0  0
  9 23  1  0  0  0  0
 21 29  2  0  0  0  0
  1  4  1  0  0  0  0
  1  5  1  0  0  0  0
  1 14  1  0  0  0  0
  1 21  1  0  0  0  0
  1 26  1  0  0  0  0
  1  2  1  0  0  0  0
  1  3  1  0  0  0  0
M  END
$$$$
