compound_127
  GFN2-xTB geometry (ORCA XTB2, DDCOSMO(water))

 76 82  0  0  0  0  0  0  0  0999 V2000
   -4.3196   -4.5036   -0.1771 C   0  0  0  0  0  0  0  0  0  0  0  0
   -5.1914   -5.0561    0.7231 C   0  0  0  0  0  0  0  0  0  0  0  0
   -4.8045   -6.1917    1.5016 C   0  0  0  0  0  0  0  0  0  0  0  0
   -3.5588   -6.7390    1.3171 C   0  0  0  0  0  0  0  0  0  0  0  0
   -2.6697   -6.1997    0.3731 C   0  0  0  0  0  0  0  0  0  0  0  0
   -3.0311   -5.0405   -0.3642 C   0  0  0  0  0  0  0  0  0  0  0  0
   -4.6478   -3.6538   -0.7570 H   0  0  0  0  0  0  0  0  0  0  0  0
   -8.6205    0.2056    1.2339 H   0  0  0  0  0  0  0  0  0  0  0  0
   -3.2242   -7.6055    1.8607 H   0  0  0  0  0  0  0  0  0  0  0  0
   -9.7938   -0.4959    2.1557 H   0  0  0  0  0  0  0  0  0  0  0  0
   -5.7278   -6.6419    2.3759 O   0  0  0  0  0  0  0  0  0  0  0  0
   -5.4212   -7.7696    3.1773 C   0  0  0  0  0  0  0  0  0  0  0  0
   -5.2255   -8.6490    2.5607 H   0  0  0  0  0  0  0  0  0  0  0  0
   -6.3050   -7.9379    3.7883 H   0  0  0  0  0  0  0  0  0  0  0  0
   -4.5589   -7.5756    3.8190 H   0  0  0  0  0  0  0  0  0  0  0  0
   -6.4374   -4.5064    0.9022 O   0  0  0  0  0  0  0  0  0  0  0  0
   -7.5056   -5.2882    0.3381 C   0  0  0  0  0  0  0  0  0  0  0  0
   -8.8240   -4.6416    0.7391 C   0  0  0  0  0  0  0  0  0  0  0  0
   -7.3879   -5.2873   -0.7537 H   0  0  0  0  0  0  0  0  0  0  0  0
   -9.0425   -4.8372    1.7909 H   0  0  0  0  0  0  0  0  0  0  0  0
   -9.6156   -5.0795    0.1225 H   0  0  0  0  0  0  0  0  0  0  0  0
   -7.4520   -6.3176    0.7033 H   0  0  0  0  0  0  0  0  0  0  0  0
   -8.7563   -3.1955    0.5352 N   0  0  0  0  0  0  0  0  0  0  0  0
   -8.2015   -3.0183   -0.3127 H   0  0  0  0  0  0  0  0  0  0  0  0
   -3.7972   -2.9523    4.4266 H   0  0  0  0  0  0  0  0  0  0  0  0
  -10.0762   -2.5840    0.3235 C   0  0  0  0  0  0  0  0  0  0  0  0
   -9.8362   -1.0866    0.1973 C   0  0  0  0  0  0  0  0  0  0  0  0
   -9.1152   -0.6721    1.4094 N   0  0  0  0  0  0  0  0  0  0  0  0
  -10.5500   -2.9838   -0.5775 H   0  0  0  0  0  0  0  0  0  0  0  0
  -10.6966   -2.8027    1.1954 H   0  0  0  0  0  0  0  0  0  0  0  0
  -10.7773   -0.5415    0.0921 H   0  0  0  0  0  0  0  0  0  0  0  0
   -9.2011   -0.8858   -0.6722 H   0  0  0  0  0  0  0  0  0  0  0  0
   -1.4926   -6.8421    0.1696 N   0  0  0  0  0  0  0  0  0  0  0  0
   -0.7422   -6.3830   -0.7917 C   0  0  0  0  0  0  0  0  0  0  0  0
   -0.9677   -5.3162   -1.5530 N   0  0  0  0  0  0  0  0  0  0  0  0
   -2.0669   -4.6044   -1.3217 C   0  0  0  0  0  0  0  0  0  0  0  0
   -6.3376   -4.7697    3.6850 H   0  0  0  0  0  0  0  0  0  0  0  0
    0.1779   -6.9173   -0.9942 H   0  0  0  0  0  0  0  0  0  0  0  0
   -8.7036   -4.2504    4.0930 H   0  0  0  0  0  0  0  0  0  0  0  0
   -2.2172   -3.5327   -2.1502 N   0  0  0  0  0  0  0  0  0  0  0  0
   -2.7180   -2.2641   -1.8824 C   0  0  0  0  0  0  0  0  0  0  0  0
   -2.8708   -1.7775   -0.5885 C   0  0  0  0  0  0  0  0  0  0  0  0
   -3.3377   -0.4780   -0.3956 C   0  0  0  0  0  0  0  0  0  0  0  0
   -3.6452    0.3459   -1.4790 C   0  0  0  0  0  0  0  0  0  0  0  0
   -3.4724   -0.1428   -2.7610 C   0  0  0  0  0  0  0  0  0  0  0  0
   -3.0095   -1.4281   -2.9645 C   0  0  0  0  0  0  0  0  0  0  0  0
   -2.6224   -2.3911    0.2655 H   0  0  0  0  0  0  0  0  0  0  0  0
   -1.5918   -3.5772   -2.9468 H   0  0  0  0  0  0  0  0  0  0  0  0
   -3.6878    0.3984    1.9822 N   0  0  0  0  0  0  0  0  0  0  0  0
   -3.7002    0.4867   -3.6060 H   0  0  0  0  0  0  0  0  0  0  0  0
   -2.8679   -1.8015   -3.9661 H   0  0  0  0  0  0  0  0  0  0  0  0
   -7.7057   -2.1116    2.0118 Ru  0  0  0  0  0  0  0  0  0  0  0  0
   -5.7213   -2.7201    3.5570 C   0  0  0  0  0  0  0  0  0  0  0  0
   -6.1851   -1.3755    3.6186 C   0  0  0  0  0  0  0  0  0  0  0  0
   -7.4918   -1.0749    4.0175 C   0  0  0  0  0  0  0  0  0  0  0  0
   -8.4494   -2.1113    4.2025 C   0  0  0  0  0  0  0  0  0  0  0  0
   -8.0216   -3.4279    3.9111 C   0  0  0  0  0  0  0  0  0  0  0  0
   -6.6541   -3.7365    3.7055 C   0  0  0  0  0  0  0  0  0  0  0  0
   -5.4562   -0.5767    3.5114 H   0  0  0  0  0  0  0  0  0  0  0  0
   -7.7396   -0.0451    4.2417 H   0  0  0  0  0  0  0  0  0  0  0  0
   -6.3337   -1.2864    0.2081 Cl  0  0  0  0  0  0  0  0  0  0  0  0
   -3.5185    0.0059    0.9152 C   0  0  0  0  0  0  0  0  0  0  0  0
   -4.0100    1.3456   -1.3031 H   0  0  0  0  0  0  0  0  0  0  0  0
   -4.2550   -2.9976    3.4373 C   0  0  0  0  0  0  0  0  0  0  0  0
   -3.7661   -2.2461    2.8162 H   0  0  0  0  0  0  0  0  0  0  0  0
   -4.0646   -3.9817    3.0146 H   0  0  0  0  0  0  0  0  0  0  0  0
   -9.7954   -1.9020    4.8749 C   0  0  0  0  0  0  0  0  0  0  0  0
  -10.0409   -0.4594    5.3156 C   0  0  0  0  0  0  0  0  0  0  0  0
  -10.9688   -2.3919    4.0185 C   0  0  0  0  0  0  0  0  0  0  0  0
  -10.7667   -3.3698    3.5941 H   0  0  0  0  0  0  0  0  0  0  0  0
  -11.1761   -1.6843    3.2216 H   0  0  0  0  0  0  0  0  0  0  0  0
  -11.8597   -2.4676    4.6375 H   0  0  0  0  0  0  0  0  0  0  0  0
   -9.7595   -2.5227    5.7802 H   0  0  0  0  0  0  0  0  0  0  0  0
  -10.9955   -0.4020    5.8338 H   0  0  0  0  0  0  0  0  0  0  0  0
  -10.0782    0.2186    4.4677 H   0  0  0  0  0  0  0  0  0  0  0  0
   -9.2714   -0.1202    6.0059 H   0  0  0  0  0  0  0  0  0  0  0  0
 43 62  1  0  0  0  0
  6 36  1  0  0  0  0
  3 11  1  0  0  0  0
 34 35  1  0  0  0  0
  1  2  4  0  0  0  0
  2 16  1  0  0  0  0
  3  4  4  0  0  0  0
 45 46  4  0  0  0  0
 44 45  4  0  0  0  0
 53 58  4  0  0  0  0
 53 64  1  0  0  0  0
 41 42  4  0  0  0  0
  5 33  1  0  0  0  0
 42 43  4  0  0  0  0
 43 44  4  0  0  0  0
 41 46  4  0  0  0  0
 54 55  4  0  0  0  0
 36 40  1  0  0  0  0
  4  5  4  0  0  0  0
 56 67  1  0  0  0  0
  1  6  4  0  0  0  0
 26 27  1  0  0  0  0
 17 18  1  0  0  0  0
 11 12  1  0  0  0  0
 56 57  4  0  0  0  0
 67 68  1  0  0  0  0
 57 58  4  0  0  0  0
  5  6  4  0  0  0  0
 67 69  1  0  0  0  0
 55 56  4  0  0  0  0
 53 54  4  0  0  0  0
 40 41  1  0  0  0  0
  2  3  4  0  0  0  0
  4  9  1  0  0  0  0
 16 17  1  0  0  0  0
 45 50  1  0  0  0  0
 46 51  1  0  0  0  0
 44 63  1  0  0  0  0
  1  7  1  0  0  0  0
 42 47  1  0  0  0  0
 37 58  1  0  0  0  0
 55 60  1  0  0  0  0
 34 38  1  0  0  0  0
 39 57  1  0  0  0  0
 40 48  1  0  0  0  0
 69 70  1  0  0  0  0
 69 71  1  0  0  0  0
 68 75  1  0  0  0  0
 54 59  1  0  0  0  0
 69 72  1  0  0  0  0
 12 14  1  0  0  0  0
 68 74  1  0  0  0  0
 64 66  1  0  0  0  0
 68 76  1  0  0  0  0
 64 65  1  0  0  0  0
 25 64  1  0  0  0  0
 12 13  1  0  0  0  0
 18 20  1  0  0  0  0
 12 15  1  0  0  0  0
 26 30  1  0  0  0  0
 27 31  1  0  0  0  0
 17 22  1  0  0  0  0
 26 29  1  0  0  0  0
  8 28  1  0  0  0  0
 18 21  1  0  0  0  0
 27 32  1  0  0  0  0
 10 28  1  0  0  0  0
 17 19  1  0  0  0  0
 67 73  1  0  0  0  0
 23 24  1  0  0  0  0
 18 23  1  0  0  0  0
 27 28  1  0  0  0  0
 23 26  1  0  0  0  0
 49 62  3  0  0  0  0
 33 34  2  0  0  0  0
 35 36  2  0  0  0  0
 52 57  1  0  0  0  0
 52 23  1  0  0  0  0
 52 28  1  0  0  0  0
 52 55  1  0  0  0  0
 52 61  1  0  0  0  0
 52 54  1  0  0  0  0
M  END
$$$$
