compound_116
  GFN2-xTB geometry (ORCA XTB2, DDCOSMO(water))

 63 72  0  0  0  0  0  0  0  0999 V2000
   -4.8218   -4.8469   -1.1406 C   0  0  0  0  0  0  0  0  0  0  0  0
   -5.8197   -5.3460   -0.3480 C   0  0  0  0  0  0  0  0  0  0  0  0
   -5.5120   -6.2814    0.6967 C   0  0  0  0  0  0  0  0  0  0  0  0
   -4.2299   -6.7404    0.8460 C   0  0  0  0  0  0  0  0  0  0  0  0
   -3.2014   -6.2693    0.0071 C   0  0  0  0  0  0  0  0  0  0  0  0
   -3.4877   -5.2643   -0.9524 C   0  0  0  0  0  0  0  0  0  0  0  0
   -5.0393   -4.1522   -1.9330 H   0  0  0  0  0  0  0  0  0  0  0  0
  -10.8342    0.2136    0.3187 H   0  0  0  0  0  0  0  0  0  0  0  0
   -3.9638   -7.4784    1.5827 H   0  0  0  0  0  0  0  0  0  0  0  0
  -11.5718   -1.1174    0.9607 H   0  0  0  0  0  0  0  0  0  0  0  0
   -6.5739   -6.6423    1.4480 O   0  0  0  0  0  0  0  0  0  0  0  0
   -6.3949   -7.6251    2.4492 C   0  0  0  0  0  0  0  0  0  0  0  0
   -6.0434   -8.5664    2.0210 H   0  0  0  0  0  0  0  0  0  0  0  0
   -7.3767   -7.7692    2.8941 H   0  0  0  0  0  0  0  0  0  0  0  0
   -5.6891   -7.2886    3.2125 H   0  0  0  0  0  0  0  0  0  0  0  0
   -7.1305   -5.0400   -0.4457 O   0  0  0  0  0  0  0  0  0  0  0  0
   -7.5704   -4.1435   -1.4556 C   0  0  0  0  0  0  0  0  0  0  0  0
   -9.0986   -4.0754   -1.3638 C   0  0  0  0  0  0  0  0  0  0  0  0
   -7.1333   -3.1453   -1.2899 H   0  0  0  0  0  0  0  0  0  0  0  0
   -9.4272   -4.7215   -0.5458 H   0  0  0  0  0  0  0  0  0  0  0  0
   -9.5354   -4.4497   -2.2945 H   0  0  0  0  0  0  0  0  0  0  0  0
   -7.2457   -4.5055   -2.4360 H   0  0  0  0  0  0  0  0  0  0  0  0
   -9.5837   -2.7146   -1.1270 N   0  0  0  0  0  0  0  0  0  0  0  0
   -9.1834   -2.1091   -1.8578 H   0  0  0  0  0  0  0  0  0  0  0  0
   -5.0705    1.5168   -2.2276 Cl  0  0  0  0  0  0  0  0  0  0  0  0
  -11.0477   -2.6417   -1.2656 C   0  0  0  0  0  0  0  0  0  0  0  0
  -11.4244   -1.1824   -1.0710 C   0  0  0  0  0  0  0  0  0  0  0  0
  -10.9045   -0.8039    0.2485 N   0  0  0  0  0  0  0  0  0  0  0  0
  -11.3654   -3.0025   -2.2476 H   0  0  0  0  0  0  0  0  0  0  0  0
  -11.4959   -3.2611   -0.4823 H   0  0  0  0  0  0  0  0  0  0  0  0
  -12.5064   -1.0399   -1.1272 H   0  0  0  0  0  0  0  0  0  0  0  0
  -10.9359   -0.5654   -1.8325 H   0  0  0  0  0  0  0  0  0  0  0  0
   -1.9648   -6.8108    0.1226 N   0  0  0  0  0  0  0  0  0  0  0  0
   -1.0663   -6.3924   -0.7257 C   0  0  0  0  0  0  0  0  0  0  0  0
   -1.1946   -5.4170   -1.6223 N   0  0  0  0  0  0  0  0  0  0  0  0
   -2.3699   -4.8042   -1.7006 C   0  0  0  0  0  0  0  0  0  0  0  0
   -6.2163   -3.0491    1.3705 H   0  0  0  0  0  0  0  0  0  0  0  0
   -0.0936   -6.8671   -0.6830 H   0  0  0  0  0  0  0  0  0  0  0  0
   -8.1806   -4.5482    1.6145 H   0  0  0  0  0  0  0  0  0  0  0  0
   -2.4256   -3.7733   -2.6035 N   0  0  0  0  0  0  0  0  0  0  0  0
   -3.0669   -2.5574   -2.4843 C   0  0  0  0  0  0  0  0  0  0  0  0
   -3.6203   -2.1103   -1.2818 C   0  0  0  0  0  0  0  0  0  0  0  0
   -4.2299   -0.8746   -1.2366 C   0  0  0  0  0  0  0  0  0  0  0  0
   -4.3038   -0.0479   -2.3463 C   0  0  0  0  0  0  0  0  0  0  0  0
   -3.7381   -0.4839   -3.5362 C   0  0  0  0  0  0  0  0  0  0  0  0
   -3.1278   -1.7180   -3.6023 C   0  0  0  0  0  0  0  0  0  0  0  0
   -3.5594   -2.6954   -0.3792 H   0  0  0  0  0  0  0  0  0  0  0  0
   -1.6622   -3.7913   -3.2692 H   0  0  0  0  0  0  0  0  0  0  0  0
   -4.7636   -0.4693   -0.0536 F   0  0  0  0  0  0  0  0  0  0  0  0
   -3.7810    0.1551   -4.4018 H   0  0  0  0  0  0  0  0  0  0  0  0
   -2.6850   -2.0423   -4.5297 H   0  0  0  0  0  0  0  0  0  0  0  0
   -9.0309   -1.6805    0.6488 Ru  0  0  0  0  0  0  0  0  0  0  0  0
   -7.2464   -1.3104    2.1257 C   0  0  0  0  0  0  0  0  0  0  0  0
   -8.4257   -0.8105    2.7059 C   0  0  0  0  0  0  0  0  0  0  0  0
   -9.5418   -1.6592    2.8489 C   0  0  0  0  0  0  0  0  0  0  0  0
   -9.4790   -3.0081    2.4266 C   0  0  0  0  0  0  0  0  0  0  0  0
   -8.2797   -3.4982    1.8654 C   0  0  0  0  0  0  0  0  0  0  0  0
   -7.1608   -2.6543    1.7237 C   0  0  0  0  0  0  0  0  0  0  0  0
   -8.4474    0.2004    3.0939 H   0  0  0  0  0  0  0  0  0  0  0  0
  -10.4278   -1.2901    3.3547 H   0  0  0  0  0  0  0  0  0  0  0  0
   -8.0879   -0.0361   -0.8674 Cl  0  0  0  0  0  0  0  0  0  0  0  0
  -10.3043   -3.6820    2.6210 H   0  0  0  0  0  0  0  0  0  0  0  0
   -6.3712   -0.6723    2.0489 H   0  0  0  0  0  0  0  0  0  0  0  0
  6 36  1  0  0  0  0
  2 16  1  0  0  0  0
  3 11  1  0  0  0  0
 34 35  1  0  0  0  0
  1  2  4  0  0  0  0
  3  4  4  0  0  0  0
 43 49  1  0  0  0  0
 45 46  4  0  0  0  0
 42 43  4  0  0  0  0
 43 44  4  0  0  0  0
 44 45  4  0  0  0  0
  5 33  1  0  0  0  0
 41 42  4  0  0  0  0
 41 46  4  0  0  0  0
 53 58  4  0  0  0  0
 53 54  4  0  0  0  0
  4  5  4  0  0  0  0
 26 27  1  0  0  0  0
 57 58  4  0  0  0  0
 36 40  1  0  0  0  0
 54 55  4  0  0  0  0
  1  6  4  0  0  0  0
 11 12  1  0  0  0  0
 56 57  4  0  0  0  0
 55 56  4  0  0  0  0
 25 44  1  0  0  0  0
 40 41  1  0  0  0  0
 16 17  1  0  0  0  0
  5  6  4  0  0  0  0
 17 18  1  0  0  0  0
  1  7  1  0  0  0  0
  2  3  4  0  0  0  0
  4  9  1  0  0  0  0
 45 50  1  0  0  0  0
 42 47  1  0  0  0  0
 46 51  1  0  0  0  0
 37 58  1  0  0  0  0
 54 59  1  0  0  0  0
 56 62  1  0  0  0  0
 34 38  1  0  0  0  0
 40 48  1  0  0  0  0
 39 57  1  0  0  0  0
 55 60  1  0  0  0  0
 53 63  1  0  0  0  0
 12 14  1  0  0  0  0
 12 13  1  0  0  0  0
 12 15  1  0  0  0  0
 27 31  1  0  0  0  0
 18 20  1  0  0  0  0
 26 29  1  0  0  0  0
  8 28  1  0  0  0  0
 18 21  1  0  0  0  0
 17 22  1  0  0  0  0
 26 30  1  0  0  0  0
 27 32  1  0  0  0  0
 10 28  1  0  0  0  0
 23 24  1  0  0  0  0
 17 19  1  0  0  0  0
 18 23  1  0  0  0  0
 27 28  1  0  0  0  0
 23 26  1  0  0  0  0
 33 34  2  0  0  0  0
 35 36  2  0  0  0  0
 52 28  1  0  0  0  0
 52 57  1  0  0  0  0
 52 23  1  0  0  0  0
 52 53  1  0  0  0  0
 52 54  1  0  0  0  0
 52 55  1  0  0  0  0
 52 56  1  0  0  0  0
 52 58  1  0  0  0  0
 52 61  1  0  0  0  0
M  END
$$$$
