compound_39
  GFN2-xTB geometry (ORCA XTB2, DDCOSMO(water))

 47 58  0  0  0  0  0  0  0  0999 V2000
   -0.2172   -0.2929   -1.0563 C   0  0  0  0  0  0  0  0  0  0  0  0
   -1.2581   -0.7157   -0.1882 C   0  0  0  0  0  0  0  0  0  0  0  0
   -0.9678   -1.8410    0.6193 C   0  0  0  0  0  0  0  0  0  0  0  0
    0.2874   -2.4568    0.5295 C   0  0  0  0  0  0  0  0  0  0  0  0
    1.3229   -2.0472   -0.3572 C   0  0  0  0  0  0  0  0  0  0  0  0
    1.0257   -0.9401   -1.1426 C   0  0  0  0  0  0  0  0  0  0  0  0
    2.2268   -5.7010    1.9867 H   0  0  0  0  0  0  0  0  0  0  0  0
    4.4756   -6.0081    1.0153 H   0  0  0  0  0  0  0  0  0  0  0  0
   -3.7452   -2.3496    2.2439 H   0  0  0  0  0  0  0  0  0  0  0  0
    5.3562   -4.4462   -0.6514 H   0  0  0  0  0  0  0  0  0  0  0  0
   -2.5456   -0.1724   -0.0557 C   0  0  0  0  0  0  0  0  0  0  0  0
   -3.4405   -0.7554    0.8215 C   0  0  0  0  0  0  0  0  0  0  0  0
   -3.0447   -1.8841    1.5645 C   0  0  0  0  0  0  0  0  0  0  0  0
   -1.8411   -2.4141    1.4716 N   0  0  0  0  0  0  0  0  0  0  0  0
   -2.8189    0.6871   -0.6487 H   0  0  0  0  0  0  0  0  0  0  0  0
   -4.8233   -0.2237    1.0092 C   0  0  0  0  0  0  0  0  0  0  0  0
    2.3583   -3.0138   -0.1371 C   0  0  0  0  0  0  0  0  0  0  0  0
    1.8527   -3.9176    0.8508 C   0  0  0  0  0  0  0  0  0  0  0  0
    0.5924   -3.5339    1.2560 N   0  0  0  0  0  0  0  0  0  0  0  0
    4.0015   -2.5157   -1.4176 H   0  0  0  0  0  0  0  0  0  0  0  0
    2.6158   -5.0013    1.2649 C   0  0  0  0  0  0  0  0  0  0  0  0
    3.8694   -5.1695    0.7092 C   0  0  0  0  0  0  0  0  0  0  0  0
    4.3716   -4.2823   -0.2420 C   0  0  0  0  0  0  0  0  0  0  0  0
    3.6256   -3.2036   -0.6744 C   0  0  0  0  0  0  0  0  0  0  0  0
    1.8260   -0.2422   -2.1730 C   0  0  0  0  0  0  0  0  0  0  0  0
    1.0263    0.7754   -2.6317 N   0  0  0  0  0  0  0  0  0  0  0  0
   -0.2244    0.8027   -2.0112 C   0  0  0  0  0  0  0  0  0  0  0  0
   -1.0897    1.6164   -2.2754 O   0  0  0  0  0  0  0  0  0  0  0  0
    2.9505   -0.4773   -2.5666 O   0  0  0  0  0  0  0  0  0  0  0  0
    1.3027    1.4257   -3.3522 H   0  0  0  0  0  0  0  0  0  0  0  0
   -1.1123   -4.1715    2.2646 Ru  0  0  0  0  0  0  0  0  0  0  0  0
   -1.7023   -5.0960    0.1175 Cl  0  0  0  0  0  0  0  0  0  0  0  0
   -2.1576   -2.7382    4.7473 H   0  0  0  0  0  0  0  0  0  0  0  0
    0.0427   -5.2527    3.9782 C   0  0  0  0  0  0  0  0  0  0  0  0
   -0.4148   -3.9782    4.4041 C   0  0  0  0  0  0  0  0  0  0  0  0
   -1.7935   -3.6735    4.3350 C   0  0  0  0  0  0  0  0  0  0  0  0
   -2.7175   -4.6405    3.8565 C   0  0  0  0  0  0  0  0  0  0  0  0
    1.0830   -5.5198    4.1181 H   0  0  0  0  0  0  0  0  0  0  0  0
    0.2748   -3.2865    4.8740 H   0  0  0  0  0  0  0  0  0  0  0  0
   -3.7826   -4.4518    3.9065 H   0  0  0  0  0  0  0  0  0  0  0  0
   -2.2431   -5.8660    3.3716 C   0  0  0  0  0  0  0  0  0  0  0  0
   -0.8559   -6.1803    3.4386 C   0  0  0  0  0  0  0  0  0  0  0  0
   -0.5171   -7.1678    3.1484 H   0  0  0  0  0  0  0  0  0  0  0  0
   -2.9405   -6.6192    3.0209 H   0  0  0  0  0  0  0  0  0  0  0  0
   -4.9741    0.0696    2.0457 H   0  0  0  0  0  0  0  0  0  0  0  0
   -5.5549   -0.9920    0.7686 H   0  0  0  0  0  0  0  0  0  0  0  0
   -4.9916    0.6368    0.3699 H   0  0  0  0  0  0  0  0  0  0  0  0
  1  2  1  0  0  0  0
  5 17  1  0  0  0  0
  1 27  1  0  0  0  0
  4 19  1  0  0  0  0
  6 25  1  0  0  0  0
 23 24  4  0  0  0  0
 13 14  2  0  0  0  0
 21 22  4  0  0  0  0
 11 12  2  0  0  0  0
 12 16  1  0  0  0  0
  3 14  1  0  0  0  0
 18 21  4  0  0  0  0
  5  6  1  0  0  0  0
 17 24  4  0  0  0  0
 22 23  4  0  0  0  0
 34 42  4  0  0  0  0
 37 41  4  0  0  0  0
  3  4  1  0  0  0  0
  2 11  1  0  0  0  0
  1  6  2  0  0  0  0
 12 13  1  0  0  0  0
 25 26  1  0  0  0  0
 35 36  4  0  0  0  0
  2  3  2  0  0  0  0
 18 19  1  0  0  0  0
 34 35  4  0  0  0  0
 36 37  4  0  0  0  0
  4  5  2  0  0  0  0
 41 42  4  0  0  0  0
 17 18  4  0  0  0  0
 26 27  1  0  0  0  0
  7 21  1  0  0  0  0
 10 23  1  0  0  0  0
  8 22  1  0  0  0  0
 11 15  1  0  0  0  0
 26 30  1  0  0  0  0
 20 24  1  0  0  0  0
  9 13  1  0  0  0  0
 37 40  1  0  0  0  0
 34 38  1  0  0  0  0
 42 43  1  0  0  0  0
 35 39  1  0  0  0  0
 41 44  1  0  0  0  0
 33 36  1  0  0  0  0
 16 47  1  0  0  0  0
 16 45  1  0  0  0  0
 16 46  1  0  0  0  0
 25 29  2  0  0  0  0
 27 28  2  0  0  0  0
 31 19  1  0  0  0  0
 31 32  1  0  0  0  0
 31 41  1  0  0  0  0
 31 34  1  0  0  0  0
 31 35  1  0  0  0  0
 31 36  1  0  0  0  0
 31 37  1  0  0  0  0
 31 42  1  0  0  0  0
 31 14  1  0  0  0  0
M  END
$$$$
