compound_126
  GFN2-xTB geometry (ORCA XTB2, DDCOSMO(water))

 64 73  0  0  0  0  0  0  0  0999 V2000
   -4.1814   -4.9448   -0.5701 C   0  0  0  0  0  0  0  0  0  0  0  0
   -5.0314   -5.4950    0.3515 C   0  0  0  0  0  0  0  0  0  0  0  0
   -4.5642   -6.5294    1.2303 C   0  0  0  0  0  0  0  0  0  0  0  0
   -3.2957   -7.0275    1.0881 C   0  0  0  0  0  0  0  0  0  0  0  0
   -2.4297   -6.5052    0.1085 C   0  0  0  0  0  0  0  0  0  0  0  0
   -2.8547   -5.4085   -0.6813 C   0  0  0  0  0  0  0  0  0  0  0  0
   -4.5172   -4.1718   -1.2397 H   0  0  0  0  0  0  0  0  0  0  0  0
   -9.2667    0.0648    2.2799 H   0  0  0  0  0  0  0  0  0  0  0  0
   -2.9254   -7.8389    1.6901 H   0  0  0  0  0  0  0  0  0  0  0  0
  -10.1449   -1.1138    3.0294 H   0  0  0  0  0  0  0  0  0  0  0  0
   -5.4752   -6.9447    2.1366 O   0  0  0  0  0  0  0  0  0  0  0  0
   -5.1360   -8.0102    3.0039 C   0  0  0  0  0  0  0  0  0  0  0  0
   -4.9054   -8.9183    2.4426 H   0  0  0  0  0  0  0  0  0  0  0  0
   -6.0163   -8.1735    3.6210 H   0  0  0  0  0  0  0  0  0  0  0  0
   -4.2845   -7.7490    3.6369 H   0  0  0  0  0  0  0  0  0  0  0  0
   -6.3262   -5.1555    0.5262 O   0  0  0  0  0  0  0  0  0  0  0  0
   -6.9471   -4.2695   -0.3963 C   0  0  0  0  0  0  0  0  0  0  0  0
   -8.4251   -4.1540   -0.0093 C   0  0  0  0  0  0  0  0  0  0  0  0
   -6.4643   -3.2815   -0.3501 H   0  0  0  0  0  0  0  0  0  0  0  0
   -8.6560   -4.9207    0.7344 H   0  0  0  0  0  0  0  0  0  0  0  0
   -9.0406   -4.3326   -0.8962 H   0  0  0  0  0  0  0  0  0  0  0  0
   -6.8318   -4.6683   -1.4094 H   0  0  0  0  0  0  0  0  0  0  0  0
   -8.7451   -2.8317    0.5284 N   0  0  0  0  0  0  0  0  0  0  0  0
   -8.3904   -2.1392   -0.1480 H   0  0  0  0  0  0  0  0  0  0  0  0
   -9.2638   -2.3044    5.0331 H   0  0  0  0  0  0  0  0  0  0  0  0
  -10.1933   -2.6018    0.6400 C   0  0  0  0  0  0  0  0  0  0  0  0
  -10.3464   -1.1315    0.9992 C   0  0  0  0  0  0  0  0  0  0  0  0
   -9.5522   -0.9150    2.2178 N   0  0  0  0  0  0  0  0  0  0  0  0
  -10.7002   -2.8307   -0.3013 H   0  0  0  0  0  0  0  0  0  0  0  0
  -10.5878   -3.2416    1.4355 H   0  0  0  0  0  0  0  0  0  0  0  0
  -11.3945   -0.8694    1.1598 H   0  0  0  0  0  0  0  0  0  0  0  0
   -9.9378   -0.5117    0.1949 H   0  0  0  0  0  0  0  0  0  0  0  0
   -1.2172   -7.0842   -0.0746 N   0  0  0  0  0  0  0  0  0  0  0  0
   -0.4875   -6.6082   -1.0452 C   0  0  0  0  0  0  0  0  0  0  0  0
   -0.7430   -5.5442   -1.8045 N   0  0  0  0  0  0  0  0  0  0  0  0
   -1.8834   -4.8997   -1.5879 C   0  0  0  0  0  0  0  0  0  0  0  0
   -7.0565   -5.2577    2.7784 H   0  0  0  0  0  0  0  0  0  0  0  0
    0.4524   -7.1096   -1.2417 H   0  0  0  0  0  0  0  0  0  0  0  0
   -9.1910   -4.5097    3.8611 H   0  0  0  0  0  0  0  0  0  0  0  0
   -2.0849   -3.7751   -2.3410 N   0  0  0  0  0  0  0  0  0  0  0  0
   -2.6278   -2.5717   -1.9072 C   0  0  0  0  0  0  0  0  0  0  0  0
   -2.7660   -2.2664   -0.5559 C   0  0  0  0  0  0  0  0  0  0  0  0
   -3.2894   -1.0315   -0.1763 C   0  0  0  0  0  0  0  0  0  0  0  0
   -3.6798   -0.0923   -1.1322 C   0  0  0  0  0  0  0  0  0  0  0  0
   -3.5268   -0.4005   -2.4722 C   0  0  0  0  0  0  0  0  0  0  0  0
   -3.0015   -1.6187   -2.8593 C   0  0  0  0  0  0  0  0  0  0  0  0
   -2.4485   -2.9653    0.2035 H   0  0  0  0  0  0  0  0  0  0  0  0
   -1.4647   -3.7063   -3.1381 H   0  0  0  0  0  0  0  0  0  0  0  0
   -5.0865   -3.7560    2.7568 H   0  0  0  0  0  0  0  0  0  0  0  0
   -3.8164    0.3211   -3.2190 H   0  0  0  0  0  0  0  0  0  0  0  0
   -2.8725   -1.8455   -3.9056 H   0  0  0  0  0  0  0  0  0  0  0  0
   -7.8618   -2.1857    2.3377 Ru  0  0  0  0  0  0  0  0  0  0  0  0
   -6.0222   -3.4232    3.1911 C   0  0  0  0  0  0  0  0  0  0  0  0
   -6.0768   -2.1642    3.8362 C   0  0  0  0  0  0  0  0  0  0  0  0
   -7.2296   -1.7657    4.5186 C   0  0  0  0  0  0  0  0  0  0  0  0
   -8.3811   -2.5912    4.4707 C   0  0  0  0  0  0  0  0  0  0  0  0
   -8.3440   -3.8368    3.8073 C   0  0  0  0  0  0  0  0  0  0  0  0
   -7.1385   -4.2648    3.2019 C   0  0  0  0  0  0  0  0  0  0  0  0
   -5.1851   -1.5445    3.8583 H   0  0  0  0  0  0  0  0  0  0  0  0
   -7.2262   -0.8530    5.1014 H   0  0  0  0  0  0  0  0  0  0  0  0
   -6.6762   -0.6388    0.9076 Cl  0  0  0  0  0  0  0  0  0  0  0  0
   -3.3997   -0.7345    1.1970 C   0  0  0  0  0  0  0  0  0  0  0  0
   -4.0873    0.8562   -0.8173 H   0  0  0  0  0  0  0  0  0  0  0  0
   -3.4802   -0.4980    2.3193 N   0  0  0  0  0  0  0  0  0  0  0  0
 43 62  1  0  0  0  0
  6 36  1  0  0  0  0
  2 16  1  0  0  0  0
  3 11  1  0  0  0  0
 34 35  1  0  0  0  0
  1  2  4  0  0  0  0
  3  4  4  0  0  0  0
 45 46  4  0  0  0  0
 44 45  4  0  0  0  0
 41 42  4  0  0  0  0
  5 33  1  0  0  0  0
 42 43  4  0  0  0  0
 43 44  4  0  0  0  0
 54 55  4  0  0  0  0
 41 46  4  0  0  0  0
 53 58  4  0  0  0  0
 36 40  1  0  0  0  0
  4  5  4  0  0  0  0
  1  6  4  0  0  0  0
 26 27  1  0  0  0  0
 56 57  4  0  0  0  0
 11 12  1  0  0  0  0
 57 58  4  0  0  0  0
 53 54  4  0  0  0  0
  5  6  4  0  0  0  0
 55 56  4  0  0  0  0
 16 17  1  0  0  0  0
 17 18  1  0  0  0  0
 40 41  1  0  0  0  0
  2  3  4  0  0  0  0
  4  9  1  0  0  0  0
  1  7  1  0  0  0  0
 45 50  1  0  0  0  0
 46 51  1  0  0  0  0
 44 63  1  0  0  0  0
 42 47  1  0  0  0  0
 37 58  1  0  0  0  0
 55 60  1  0  0  0  0
 39 57  1  0  0  0  0
 34 38  1  0  0  0  0
 40 48  1  0  0  0  0
 49 53  1  0  0  0  0
 25 56  1  0  0  0  0
 54 59  1  0  0  0  0
 12 14  1  0  0  0  0
 12 13  1  0  0  0  0
 27 31  1  0  0  0  0
 12 15  1  0  0  0  0
 18 20  1  0  0  0  0
 26 29  1  0  0  0  0
  8 28  1  0  0  0  0
 18 21  1  0  0  0  0
 26 30  1  0  0  0  0
 27 32  1  0  0  0  0
 17 22  1  0  0  0  0
 10 28  1  0  0  0  0
 17 19  1  0  0  0  0
 23 24  1  0  0  0  0
 18 23  1  0  0  0  0
 23 26  1  0  0  0  0
 27 28  1  0  0  0  0
 62 64  3  0  0  0  0
 33 34  2  0  0  0  0
 35 36  2  0  0  0  0
 52 58  1  0  0  0  0
 52 57  1  0  0  0  0
 52 23  1  0  0  0  0
 52 28  1  0  0  0  0
 52 55  1  0  0  0  0
 52 56  1  0  0  0  0
 52 53  1  0  0  0  0
 52 61  1  0  0  0  0
 52 54  1  0  0  0  0
M  END
$$$$
