compound_133
  GFN2-xTB geometry (ORCA XTB2, DDCOSMO(water))

 62 71  0  0  0  0  0  0  0  0999 V2000
   20.1082   -2.0598    1.2261 Ru  0  0  0  0  0  0  0  0  0  0  0  0
   20.4702    2.7389    2.0671 C   0  0  0  0  0  0  0  0  0  0  0  0
   19.2307    2.1525    2.1934 C   0  0  0  0  0  0  0  0  0  0  0  0
   19.0605    0.7777    1.9879 C   0  0  0  0  0  0  0  0  0  0  0  0
   20.0710   -0.0096    1.6651 N   0  0  0  0  0  0  0  0  0  0  0  0
   23.6836    0.0960    0.9582 C   0  0  0  0  0  0  0  0  0  0  0  0
   23.9346    1.4479    1.1567 C   0  0  0  0  0  0  0  0  0  0  0  0
   22.9116    2.3345    1.5234 C   0  0  0  0  0  0  0  0  0  0  0  0
   21.5653    1.9309    1.7162 C   0  0  0  0  0  0  0  0  0  0  0  0
   21.2911    0.5531    1.5271 C   0  0  0  0  0  0  0  0  0  0  0  0
   22.3322   -0.3133    1.1550 C   0  0  0  0  0  0  0  0  0  0  0  0
   25.3034   -4.7491   -0.2290 H   0  0  0  0  0  0  0  0  0  0  0  0
   18.0786    0.3281    2.0758 H   0  0  0  0  0  0  0  0  0  0  0  0
   27.0063   -2.9932   -0.2779 H   0  0  0  0  0  0  0  0  0  0  0  0
   22.9498   -4.2277    0.3497 H   0  0  0  0  0  0  0  0  0  0  0  0
    8.7474   -2.9297    0.2112 H   0  0  0  0  0  0  0  0  0  0  0  0
    9.8387   -3.3135    1.7708 C   0  0  0  0  0  0  0  0  0  0  0  0
   22.1363   -1.6176    0.9426 N   0  0  0  0  0  0  0  0  0  0  0  0
   23.3660   -2.1405    0.6138 C   0  0  0  0  0  0  0  0  0  0  0  0
   24.3608   -1.1139    0.5988 C   0  0  0  0  0  0  0  0  0  0  0  0
   23.7023   -3.4554    0.3187 C   0  0  0  0  0  0  0  0  0  0  0  0
   25.0172   -3.7349    0.0028 C   0  0  0  0  0  0  0  0  0  0  0  0
   25.9901   -2.7346   -0.0237 C   0  0  0  0  0  0  0  0  0  0  0  0
   25.6768   -1.4231    0.2736 C   0  0  0  0  0  0  0  0  0  0  0  0
   26.4250   -0.6441    0.2601 H   0  0  0  0  0  0  0  0  0  0  0  0
    8.7447   -3.5832    0.9237 O   0  0  0  0  0  0  0  0  0  0  0  0
   12.2064   -3.6291    2.7792 H   0  0  0  0  0  0  0  0  0  0  0  0
   11.2701   -4.4713    0.6466 H   0  0  0  0  0  0  0  0  0  0  0  0
   11.1957   -2.7555    0.1908 H   0  0  0  0  0  0  0  0  0  0  0  0
    9.7591   -2.3101    2.2064 H   0  0  0  0  0  0  0  0  0  0  0  0
    9.7735   -4.0484    2.5772 H   0  0  0  0  0  0  0  0  0  0  0  0
   23.4901    3.6638    1.6587 C   0  0  0  0  0  0  0  0  0  0  0  0
   24.8454    3.5192    1.3604 N   0  0  0  0  0  0  0  0  0  0  0  0
   25.1898    2.2261    1.0498 C   0  0  0  0  0  0  0  0  0  0  0  0
   22.9752    4.7226    1.9632 O   0  0  0  0  0  0  0  0  0  0  0  0
   26.3057    1.8523    0.7543 O   0  0  0  0  0  0  0  0  0  0  0  0
   25.5010    4.2866    1.3749 H   0  0  0  0  0  0  0  0  0  0  0  0
   18.4611   -4.6017    1.3831 H   0  0  0  0  0  0  0  0  0  0  0  0
   19.7226   -2.5568   -0.9458 C   0  0  0  0  0  0  0  0  0  0  0  0
   20.3068   -2.3321   -1.8274 H   0  0  0  0  0  0  0  0  0  0  0  0
   19.8022   -3.7667   -0.1831 C   0  0  0  0  0  0  0  0  0  0  0  0
   18.6444   -1.8058   -0.4633 C   0  0  0  0  0  0  0  0  0  0  0  0
   20.6202   -2.7289    4.0934 O   0  0  0  0  0  0  0  0  0  0  0  0
   20.4284   -4.6147   -0.4216 H   0  0  0  0  0  0  0  0  0  0  0  0
   18.7315   -3.7677    0.7477 C   0  0  0  0  0  0  0  0  0  0  0  0
   18.0131   -2.5342    0.6053 C   0  0  0  0  0  0  0  0  0  0  0  0
   18.2448   -0.8952   -0.8916 H   0  0  0  0  0  0  0  0  0  0  0  0
   20.4326   -2.4615    2.9880 C   0  0  0  0  0  0  0  0  0  0  0  0
   16.7198   -2.1237    1.2032 C   0  0  0  0  0  0  0  0  0  0  0  0
   16.3517   -0.9467    1.1851 O   0  0  0  0  0  0  0  0  0  0  0  0
   15.9905   -3.1079    1.7511 N   0  0  0  0  0  0  0  0  0  0  0  0
   14.6775   -2.8990    2.3116 C   0  0  0  0  0  0  0  0  0  0  0  0
   13.5727   -3.2860    1.3231 C   0  0  0  0  0  0  0  0  0  0  0  0
   13.6408   -2.6426    0.4393 H   0  0  0  0  0  0  0  0  0  0  0  0
   16.2910   -4.0639    1.6415 H   0  0  0  0  0  0  0  0  0  0  0  0
   14.5804   -1.8413    2.5649 H   0  0  0  0  0  0  0  0  0  0  0  0
   14.5849   -3.4940    3.2224 H   0  0  0  0  0  0  0  0  0  0  0  0
   13.7245   -4.3298    0.9936 H   0  0  0  0  0  0  0  0  0  0  0  0
   12.2701   -3.0802    1.9261 N   0  0  0  0  0  0  0  0  0  0  0  0
   11.1788   -3.4434    1.0437 C   0  0  0  0  0  0  0  0  0  0  0  0
   18.3682    2.7439    2.4519 H   0  0  0  0  0  0  0  0  0  0  0  0
   20.6175    3.7959    2.2249 H   0  0  0  0  0  0  0  0  0  0  0  0
  8  9  1  0  0  0  0
  6 20  1  0  0  0  0
  8 32  1  0  0  0  0
 11 18  1  0  0  0  0
  7 34  1  0  0  0  0
 46 49  1  0  0  0  0
  2  3  2  0  0  0  0
 49 51  1  0  0  0  0
 23 24  4  0  0  0  0
 21 22  4  0  0  0  0
  4  5  2  0  0  0  0
  5 10  1  0  0  0  0
 19 21  4  0  0  0  0
  6  7  1  0  0  0  0
 20 24  4  0  0  0  0
 22 23  4  0  0  0  0
 39 42  4  0  0  0  0
  3  4  1  0  0  0  0
  7  8  2  0  0  0  0
 10 11  1  0  0  0  0
  2  9  1  0  0  0  0
 17 26  1  0  0  0  0
 33 34  1  0  0  0  0
 18 19  1  0  0  0  0
  9 10  2  0  0  0  0
 17 60  1  0  0  0  0
 41 45  4  0  0  0  0
 52 53  1  0  0  0  0
  6 11  2  0  0  0  0
 19 20  4  0  0  0  0
 39 41  4  0  0  0  0
 32 33  1  0  0  0  0
 45 46  4  0  0  0  0
  3 61  1  0  0  0  0
 16 26  1  0  0  0  0
 51 55  1  0  0  0  0
 15 21  1  0  0  0  0
 42 46  4  0  0  0  0
  2 62  1  0  0  0  0
 14 23  1  0  0  0  0
 12 22  1  0  0  0  0
 33 37  1  0  0  0  0
 24 25  1  0  0  0  0
 41 44  1  0  0  0  0
 39 40  1  0  0  0  0
 42 47  1  0  0  0  0
 38 45  1  0  0  0  0
  4 13  1  0  0  0  0
 27 59  1  0  0  0  0
 52 57  1  0  0  0  0
 52 56  1  0  0  0  0
 17 31  1  0  0  0  0
 53 54  1  0  0  0  0
 29 60  1  0  0  0  0
 17 30  1  0  0  0  0
 53 58  1  0  0  0  0
 28 60  1  0  0  0  0
 51 52  1  0  0  0  0
 59 60  1  0  0  0  0
 53 59  1  0  0  0  0
 43 48  2  0  0  0  0
 34 36  2  0  0  0  0
 32 35  2  0  0  0  0
 49 50  2  0  0  0  0
  1 41  1  0  0  0  0
  1 45  1  0  0  0  0
  1  5  1  0  0  0  0
  1 39  1  0  0  0  0
  1 42  1  0  0  0  0
  1 18  1  0  0  0  0
  1 46  1  0  0  0  0
M  END
$$$$
