compound_81
  GFN2-xTB geometry (ORCA XTB2, DDCOSMO(water))

 61 69  0  0  0  0  0  0  0  0999 V2000
   -0.6367   -1.0191    1.3926 Ru  0  0  0  0  0  0  0  0  0  0  0  0
    0.3480   -0.4345   -0.6470 C   0  0  0  0  0  0  0  0  0  0  0  0
   -1.0369   -0.1394   -0.6963 C   0  0  0  0  0  0  0  0  0  0  0  0
   -1.6469    0.7389    0.2288 C   0  0  0  0  0  0  0  0  0  0  0  0
   -0.8424    1.3155    1.2417 C   0  0  0  0  0  0  0  0  0  0  0  0
    0.5367    1.0453    1.3317 C   0  0  0  0  0  0  0  0  0  0  0  0
    1.1055    0.1447    0.3974 C   0  0  0  0  0  0  0  0  0  0  0  0
   -1.6335   -0.5190   -1.5158 H   0  0  0  0  0  0  0  0  0  0  0  0
   -3.1170    1.0537    0.0601 C   0  0  0  0  0  0  0  0  0  0  0  0
   -1.2847    2.0306    1.9209 H   0  0  0  0  0  0  0  0  0  0  0  0
    1.4383    1.7033    2.3531 C   0  0  0  0  0  0  0  0  0  0  0  0
   -1.8587   -1.0395    3.4509 Cl  0  0  0  0  0  0  0  0  0  0  0  0
    0.8349   -2.1104    3.3930 H   0  0  0  0  0  0  0  0  0  0  0  0
   -3.0697   -5.6142    1.2886 C   0  0  0  0  0  0  0  0  0  0  0  0
   -1.9871   -4.9762    1.9279 C   0  0  0  0  0  0  0  0  0  0  0  0
   -1.6469   -5.8490    3.0028 C   0  0  0  0  0  0  0  0  0  0  0  0
   -2.4314   -6.9034    3.0279 N   0  0  0  0  0  0  0  0  0  0  0  0
   -3.2727   -6.7319    1.9623 N   0  0  0  0  0  0  0  0  0  0  0  0
   -0.6488   -5.5273    3.8847 N   0  0  0  0  0  0  0  0  0  0  0  0
    0.0739   -4.3879    3.7543 C   0  0  0  0  0  0  0  0  0  0  0  0
    0.9335   -4.0236    4.5362 O   0  0  0  0  0  0  0  0  0  0  0  0
   -0.2042   -3.6133    2.6260 N   0  0  0  0  0  0  0  0  0  0  0  0
   -1.2892   -3.7631    1.7816 C   0  0  0  0  0  0  0  0  0  0  0  0
   -0.4813   -6.1125    4.6925 H   0  0  0  0  0  0  0  0  0  0  0  0
   -1.5156   -2.7795    0.9632 N   0  0  0  0  0  0  0  0  0  0  0  0
    1.4291   -2.6688    1.9609 H   0  0  0  0  0  0  0  0  0  0  0  0
   -4.2600   -7.7335    1.6848 C   0  0  0  0  0  0  0  0  0  0  0  0
    2.1780   -0.0174    0.4217 H   0  0  0  0  0  0  0  0  0  0  0  0
   -4.9441   -7.8292    2.5281 H   0  0  0  0  0  0  0  0  0  0  0  0
   -3.7759   -8.6962    1.5228 H   0  0  0  0  0  0  0  0  0  0  0  0
    0.5519   -2.4300    2.4524 N   0  0  0  0  0  0  0  0  0  0  0  0
   -4.8090   -7.4386    0.7946 H   0  0  0  0  0  0  0  0  0  0  0  0
   -2.3048   -2.9160    0.3339 H   0  0  0  0  0  0  0  0  0  0  0  0
    1.0418   -1.2950   -1.6790 C   0  0  0  0  0  0  0  0  0  0  0  0
    0.8301    2.9495    2.9927 C   0  0  0  0  0  0  0  0  0  0  0  0
    1.5789    3.4426    3.6078 H   0  0  0  0  0  0  0  0  0  0  0  0
    1.8064    0.6799    3.4356 C   0  0  0  0  0  0  0  0  0  0  0  0
    0.1731   -1.6145   -2.8932 C   0  0  0  0  0  0  0  0  0  0  0  0
    1.5171   -2.5957   -1.0192 C   0  0  0  0  0  0  0  0  0  0  0  0
    2.2782   -2.3968   -0.2703 H   0  0  0  0  0  0  0  0  0  0  0  0
    0.8989    0.2950    3.9052 H   0  0  0  0  0  0  0  0  0  0  0  0
   -3.9373   -0.2257    0.2789 C   0  0  0  0  0  0  0  0  0  0  0  0
   -3.6213    2.1613    0.9819 C   0  0  0  0  0  0  0  0  0  0  0  0
   -4.6625    2.3755    0.7540 H   0  0  0  0  0  0  0  0  0  0  0  0
   -3.0544    3.0795    0.8482 H   0  0  0  0  0  0  0  0  0  0  0  0
   -3.5692    1.8547    2.0260 H   0  0  0  0  0  0  0  0  0  0  0  0
   -0.0073    2.6925    3.6391 H   0  0  0  0  0  0  0  0  0  0  0  0
    0.4951    3.6577    2.2384 H   0  0  0  0  0  0  0  0  0  0  0  0
    2.3564    2.0014    1.8349 H   0  0  0  0  0  0  0  0  0  0  0  0
   -3.7178   -0.9734   -0.4766 H   0  0  0  0  0  0  0  0  0  0  0  0
   -3.7244   -0.6426    1.2657 H   0  0  0  0  0  0  0  0  0  0  0  0
   -4.9988    0.0023    0.2326 H   0  0  0  0  0  0  0  0  0  0  0  0
    0.7711   -2.1416   -3.6327 H   0  0  0  0  0  0  0  0  0  0  0  0
   -0.6587   -2.2583   -2.6200 H   0  0  0  0  0  0  0  0  0  0  0  0
   -0.2053   -0.7082   -3.3592 H   0  0  0  0  0  0  0  0  0  0  0  0
    2.4070    1.1551    4.2068 H   0  0  0  0  0  0  0  0  0  0  0  0
    2.3782   -0.1426    3.0163 H   0  0  0  0  0  0  0  0  0  0  0  0
   -3.2630    1.3802   -0.9762 H   0  0  0  0  0  0  0  0  0  0  0  0
    1.9482   -3.2531   -1.7695 H   0  0  0  0  0  0  0  0  0  0  0  0
    0.6683   -3.1048   -0.5606 H   0  0  0  0  0  0  0  0  0  0  0  0
    1.9216   -0.7391   -2.0229 H   0  0  0  0  0  0  0  0  0  0  0  0
 15 16  1  0  0  0  0
 14 18  1  0  0  0  0
 23 25  2  0  0  0  0
 19 20  1  0  0  0  0
 17 18  1  0  0  0  0
  2 34  1  0  0  0  0
  4  9  1  0  0  0  0
  6 11  1  0  0  0  0
 15 23  1  0  0  0  0
 16 19  1  0  0  0  0
  5  6  4  0  0  0  0
 14 15  2  0  0  0  0
  3  4  4  0  0  0  0
  2  7  4  0  0  0  0
  9 43  1  0  0  0  0
 34 38  1  0  0  0  0
 11 35  1  0  0  0  0
  4  5  4  0  0  0  0
  2  3  4  0  0  0  0
  6  7  4  0  0  0  0
 22 23  1  0  0  0  0
 34 39  1  0  0  0  0
 11 37  1  0  0  0  0
  9 42  1  0  0  0  0
 20 22  1  0  0  0  0
  5 10  1  0  0  0  0
 22 31  1  0  0  0  0
 19 24  1  0  0  0  0
  3  8  1  0  0  0  0
  7 28  1  0  0  0  0
 42 50  1  0  0  0  0
 37 57  1  0  0  0  0
 39 40  1  0  0  0  0
 27 32  1  0  0  0  0
 39 59  1  0  0  0  0
 42 52  1  0  0  0  0
 38 54  1  0  0  0  0
 37 56  1  0  0  0  0
 38 55  1  0  0  0  0
 43 44  1  0  0  0  0
 35 36  1  0  0  0  0
 38 53  1  0  0  0  0
 43 45  1  0  0  0  0
 35 48  1  0  0  0  0
 35 47  1  0  0  0  0
 43 46  1  0  0  0  0
 27 30  1  0  0  0  0
 25 33  1  0  0  0  0
 27 29  1  0  0  0  0
 39 60  1  0  0  0  0
 37 41  1  0  0  0  0
 42 51  1  0  0  0  0
 11 49  1  0  0  0  0
 34 61  1  0  0  0  0
  9 58  1  0  0  0  0
 18 27  1  0  0  0  0
 13 31  1  0  0  0  0
 26 31  1  0  0  0  0
 20 21  2  0  0  0  0
 16 17  2  0  0  0  0
  1  2  1  0  0  0  0
  1  3  1  0  0  0  0
  1  4  1  0  0  0  0
  1  5  1  0  0  0  0
  1  6  1  0  0  0  0
  1  7  1  0  0  0  0
  1 12  1  0  0  0  0
  1 25  1  0  0  0  0
  1 31  1  0  0  0  0
M  END
$$$$
