compound_59
  GFN2-xTB geometry (ORCA XTB2, DDCOSMO(water))

 52 60  0  0  0  0  0  0  0  0999 V2000
   -0.3268   -2.8503    1.2137 Ru  0  0  0  0  0  0  0  0  0  0  0  0
    1.1483   -3.3412   -1.2647 C   0  0  0  0  0  0  0  0  0  0  0  0
    1.8955   -4.0963   -2.1906 C   0  0  0  0  0  0  0  0  0  0  0  0
    1.9538   -5.4758   -2.0388 C   0  0  0  0  0  0  0  0  0  0  0  0
    1.3252   -6.0692   -0.9562 C   0  0  0  0  0  0  0  0  0  0  0  0
    0.6919   -5.2623   -0.0322 C   0  0  0  0  0  0  0  0  0  0  0  0
    0.6092   -3.9421   -0.1806 N   0  0  0  0  0  0  0  0  0  0  0  0
    8.0017   -2.1587   -5.4100 C   0  0  0  0  0  0  0  0  0  0  0  0
    2.4958   -6.0585   -2.7661 H   0  0  0  0  0  0  0  0  0  0  0  0
    1.3498   -7.1356   -0.8126 H   0  0  0  0  0  0  0  0  0  0  0  0
    0.2256   -5.6813    0.8513 H   0  0  0  0  0  0  0  0  0  0  0  0
    0.8048   -1.9284   -1.3331 C   0  0  0  0  0  0  0  0  0  0  0  0
    1.0173   -1.0745   -2.4171 C   0  0  0  0  0  0  0  0  0  0  0  0
    0.5613    0.2276   -2.3586 C   0  0  0  0  0  0  0  0  0  0  0  0
   -0.1227    0.6798   -1.2405 C   0  0  0  0  0  0  0  0  0  0  0  0
   -0.3657   -0.1765   -0.1764 C   0  0  0  0  0  0  0  0  0  0  0  0
    0.0924   -1.4819   -0.2055 C   0  0  0  0  0  0  0  0  0  0  0  0
    1.5019   -1.4384   -3.3080 H   0  0  0  0  0  0  0  0  0  0  0  0
    0.7243    0.8902   -3.1939 H   0  0  0  0  0  0  0  0  0  0  0  0
   -0.4847    1.6960   -1.2015 H   0  0  0  0  0  0  0  0  0  0  0  0
   -0.9366    0.1815    0.6712 H   0  0  0  0  0  0  0  0  0  0  0  0
   -2.3929   -3.3895    0.0643 Cl  0  0  0  0  0  0  0  0  0  0  0  0
    0.6003   -1.5507    2.7868 C   0  0  0  0  0  0  0  0  0  0  0  0
   -0.7755   -1.5973    3.0853 C   0  0  0  0  0  0  0  0  0  0  0  0
   -1.4114   -2.8524    3.1894 C   0  0  0  0  0  0  0  0  0  0  0  0
   -0.6295   -4.0419    3.2801 C   0  0  0  0  0  0  0  0  0  0  0  0
    0.7203   -3.9894    2.9883 C   0  0  0  0  0  0  0  0  0  0  0  0
    1.3383   -2.7657    2.6394 C   0  0  0  0  0  0  0  0  0  0  0  0
    6.3492   -3.4232   -4.9010 H   0  0  0  0  0  0  0  0  0  0  0  0
    1.1151   -0.5958    2.7404 H   0  0  0  0  0  0  0  0  0  0  0  0
   -2.4755   -2.8959    3.4150 H   0  0  0  0  0  0  0  0  0  0  0  0
    2.4097   -2.7128    2.4688 H   0  0  0  0  0  0  0  0  0  0  0  0
   -1.1044   -4.9600    3.6050 H   0  0  0  0  0  0  0  0  0  0  0  0
    8.3036   -2.7630   -6.2621 H   0  0  0  0  0  0  0  0  0  0  0  0
    4.5269   -4.3303   -1.6360 H   0  0  0  0  0  0  0  0  0  0  0  0
    7.3912   -1.3348   -5.7731 H   0  0  0  0  0  0  0  0  0  0  0  0
    6.0912   -1.3855   -3.5362 H   0  0  0  0  0  0  0  0  0  0  0  0
    7.8481   -3.8230   -4.0586 H   0  0  0  0  0  0  0  0  0  0  0  0
    8.8960   -1.7432   -4.9506 H   0  0  0  0  0  0  0  0  0  0  0  0
    6.8629   -3.7213   -1.7317 H   0  0  0  0  0  0  0  0  0  0  0  0
    5.8993   -2.3232   -1.2551 H   0  0  0  0  0  0  0  0  0  0  0  0
    7.6575   -1.6622   -2.7869 H   0  0  0  0  0  0  0  0  0  0  0  0
    5.0756   -4.4283   -3.3091 H   0  0  0  0  0  0  0  0  0  0  0  0
    3.5287   -2.0801   -2.1048 H   0  0  0  0  0  0  0  0  0  0  0  0
    3.9893   -2.2618   -3.8198 H   0  0  0  0  0  0  0  0  0  0  0  0
    2.5427   -3.5183   -3.2453 O   0  0  0  0  0  0  0  0  0  0  0  0
    3.7366   -2.7987   -2.9051 C   0  0  0  0  0  0  0  0  0  0  0  0
    4.8656   -3.7393   -2.4905 C   0  0  0  0  0  0  0  0  0  0  0  0
    6.1356   -2.9888   -2.0881 C   0  0  0  0  0  0  0  0  0  0  0  0
    6.7798   -2.1630   -3.2032 C   0  0  0  0  0  0  0  0  0  0  0  0
    7.2217   -2.9975   -4.4039 C   0  0  0  0  0  0  0  0  0  0  0  0
   -1.3337   -0.6888    3.2825 H   0  0  0  0  0  0  0  0  0  0  0  0
  2 12  1  0  0  0  0
  3 46  1  0  0  0  0
  5  6  4  0  0  0  0
 13 14  4  0  0  0  0
 26 27  4  0  0  0  0
 16 17  4  0  0  0  0
  4  5  4  0  0  0  0
 15 16  4  0  0  0  0
 14 15  4  0  0  0  0
  3  4  4  0  0  0  0
  6  7  4  0  0  0  0
 12 13  4  0  0  0  0
 24 25  4  0  0  0  0
 12 17  4  0  0  0  0
  2  3  4  0  0  0  0
  8 51  1  0  0  0  0
 47 48  1  0  0  0  0
 50 51  1  0  0  0  0
 48 49  1  0  0  0  0
  2  7  4  0  0  0  0
 49 50  1  0  0  0  0
 23 28  4  0  0  0  0
 23 24  4  0  0  0  0
 27 28  4  0  0  0  0
 25 26  4  0  0  0  0
 46 47  1  0  0  0  0
  5 10  1  0  0  0  0
  4  9  1  0  0  0  0
 13 18  1  0  0  0  0
 14 19  1  0  0  0  0
 15 20  1  0  0  0  0
 16 21  1  0  0  0  0
 26 33  1  0  0  0  0
 24 52  1  0  0  0  0
  6 11  1  0  0  0  0
 23 30  1  0  0  0  0
 28 32  1  0  0  0  0
 25 31  1  0  0  0  0
  8 34  1  0  0  0  0
  8 36  1  0  0  0  0
  8 39  1  0  0  0  0
 43 48  1  0  0  0  0
 45 47  1  0  0  0  0
 37 50  1  0  0  0  0
 29 51  1  0  0  0  0
 40 49  1  0  0  0  0
 41 49  1  0  0  0  0
 38 51  1  0  0  0  0
 42 50  1  0  0  0  0
 35 48  1  0  0  0  0
 44 47  1  0  0  0  0
  1  7  1  0  0  0  0
  1 22  1  0  0  0  0
  1 27  1  0  0  0  0
  1 26  1  0  0  0  0
  1 17  1  0  0  0  0
  1 23  1  0  0  0  0
  1 24  1  0  0  0  0
  1 25  1  0  0  0  0
  1 28  1  0  0  0  0
M  END
$$$$
