compound_40
  GFN2-xTB geometry (ORCA XTB2, DDCOSMO(water))

 50 60  0  0  0  0  0  0  0  0999 V2000
   -0.2382   -0.3287   -1.0897 C   0  0  0  0  0  0  0  0  0  0  0  0
   -1.2598   -0.7720   -0.2097 C   0  0  0  0  0  0  0  0  0  0  0  0
   -0.9195   -1.8604    0.6292 C   0  0  0  0  0  0  0  0  0  0  0  0
    0.3598   -2.4239    0.5523 C   0  0  0  0  0  0  0  0  0  0  0  0
    1.3725   -1.9996   -0.3497 C   0  0  0  0  0  0  0  0  0  0  0  0
    1.0282   -0.9258   -1.1632 C   0  0  0  0  0  0  0  0  0  0  0  0
    2.4415   -5.5725    2.0668 H   0  0  0  0  0  0  0  0  0  0  0  0
    4.6790   -5.8081    1.0812 H   0  0  0  0  0  0  0  0  0  0  0  0
   -3.6762   -2.4505    2.2663 H   0  0  0  0  0  0  0  0  0  0  0  0
    5.4900   -4.2495   -0.6263 H   0  0  0  0  0  0  0  0  0  0  0  0
   -2.5710   -0.2838   -0.0915 C   0  0  0  0  0  0  0  0  0  0  0  0
   -3.4398   -0.8826    0.8009 C   0  0  0  0  0  0  0  0  0  0  0  0
   -2.9949   -1.9722    1.5758 C   0  0  0  0  0  0  0  0  0  0  0  0
   -1.7679   -2.4466    1.4981 N   0  0  0  0  0  0  0  0  0  0  0  0
   -2.8816    0.5462   -0.7077 H   0  0  0  0  0  0  0  0  0  0  0  0
   -4.8451   -0.4109    0.9738 C   0  0  0  0  0  0  0  0  0  0  0  0
    2.4450   -2.9198   -0.1130 C   0  0  0  0  0  0  0  0  0  0  0  0
    1.9815   -3.8188    0.9010 C   0  0  0  0  0  0  0  0  0  0  0  0
    0.7114   -3.4699    1.3060 N   0  0  0  0  0  0  0  0  0  0  0  0
    4.0540   -2.3863   -1.4209 H   0  0  0  0  0  0  0  0  0  0  0  0
    2.7897   -4.8648    1.3290 C   0  0  0  0  0  0  0  0  0  0  0  0
    4.0431   -4.9967    0.7624 C   0  0  0  0  0  0  0  0  0  0  0  0
    4.5037   -4.1118   -0.2118 C   0  0  0  0  0  0  0  0  0  0  0  0
    3.7134   -3.0721   -0.6592 C   0  0  0  0  0  0  0  0  0  0  0  0
    1.7995   -0.2231   -2.2138 C   0  0  0  0  0  0  0  0  0  0  0  0
    0.9592    0.7510   -2.6950 N   0  0  0  0  0  0  0  0  0  0  0  0
   -0.2898    0.7453   -2.0730 C   0  0  0  0  0  0  0  0  0  0  0  0
   -1.1867    1.5163   -2.3510 O   0  0  0  0  0  0  0  0  0  0  0  0
    2.9308   -0.4258   -2.6031 O   0  0  0  0  0  0  0  0  0  0  0  0
    1.2092    1.3950   -3.4309 H   0  0  0  0  0  0  0  0  0  0  0  0
   -0.9485   -4.1263    2.3710 Ru  0  0  0  0  0  0  0  0  0  0  0  0
   -1.4874   -5.2236    0.3148 Cl  0  0  0  0  0  0  0  0  0  0  0  0
   -2.1949   -2.6716    4.7403 H   0  0  0  0  0  0  0  0  0  0  0  0
    0.3065   -4.9177    4.1178 C   0  0  0  0  0  0  0  0  0  0  0  0
   -0.3086   -3.7089    4.5056 C   0  0  0  0  0  0  0  0  0  0  0  0
   -1.7141   -3.5799    4.3918 C   0  0  0  0  0  0  0  0  0  0  0  0
   -2.5106   -4.6813    3.9754 C   0  0  0  0  0  0  0  0  0  0  0  0
    1.3743   -5.0641    4.2433 H   0  0  0  0  0  0  0  0  0  0  0  0
    0.2860   -2.9155    4.9423 H   0  0  0  0  0  0  0  0  0  0  0  0
   -3.5911   -4.6186    4.0048 H   0  0  0  0  0  0  0  0  0  0  0  0
   -1.8921   -5.8645    3.5622 C   0  0  0  0  0  0  0  0  0  0  0  0
   -0.4689   -5.9976    3.6330 C   0  0  0  0  0  0  0  0  0  0  0  0
   -5.0531    0.4230    0.3114 H   0  0  0  0  0  0  0  0  0  0  0  0
   -2.4792   -6.7235    3.2549 H   0  0  0  0  0  0  0  0  0  0  0  0
   -5.0106   -0.0971    2.0018 H   0  0  0  0  0  0  0  0  0  0  0  0
   -5.5396   -1.2190    0.7552 H   0  0  0  0  0  0  0  0  0  0  0  0
    0.2046   -7.2582    3.2526 C   0  0  0  0  0  0  0  0  0  0  0  0
    1.4119   -7.4038    3.2637 O   0  0  0  0  0  0  0  0  0  0  0  0
   -0.6388   -8.2210    2.9031 O   0  0  0  0  0  0  0  0  0  0  0  0
   -0.1710   -9.0376    2.6525 H   0  0  0  0  0  0  0  0  0  0  0  0
  1  2  1  0  0  0  0
 47 49  1  0  0  0  0
  5 17  1  0  0  0  0
  1 27  1  0  0  0  0
 42 47  1  0  0  0  0
  6 25  1  0  0  0  0
  4 19  1  0  0  0  0
 23 24  4  0  0  0  0
 13 14  2  0  0  0  0
 21 22  4  0  0  0  0
 11 12  2  0  0  0  0
 12 16  1  0  0  0  0
  3 14  1  0  0  0  0
 17 24  4  0  0  0  0
 18 21  4  0  0  0  0
  5  6  1  0  0  0  0
 22 23  4  0  0  0  0
 37 41  4  0  0  0  0
  3  4  1  0  0  0  0
  1  6  2  0  0  0  0
  2 11  1  0  0  0  0
 12 13  1  0  0  0  0
 34 35  4  0  0  0  0
 25 26  1  0  0  0  0
 34 42  4  0  0  0  0
 18 19  1  0  0  0  0
  2  3  2  0  0  0  0
 35 36  4  0  0  0  0
  4  5  2  0  0  0  0
 36 37  4  0  0  0  0
 41 42  4  0  0  0  0
 17 18  4  0  0  0  0
 26 27  1  0  0  0  0
 10 23  1  0  0  0  0
  8 22  1  0  0  0  0
 11 15  1  0  0  0  0
  7 21  1  0  0  0  0
 26 30  1  0  0  0  0
 20 24  1  0  0  0  0
  9 13  1  0  0  0  0
 37 40  1  0  0  0  0
 35 39  1  0  0  0  0
 41 44  1  0  0  0  0
 34 38  1  0  0  0  0
 16 43  1  0  0  0  0
 33 36  1  0  0  0  0
 49 50  1  0  0  0  0
 16 45  1  0  0  0  0
 16 46  1  0  0  0  0
 25 29  2  0  0  0  0
 27 28  2  0  0  0  0
 47 48  2  0  0  0  0
 31 19  1  0  0  0  0
 31 32  1  0  0  0  0
 31 34  1  0  0  0  0
 31 35  1  0  0  0  0
 31 36  1  0  0  0  0
 31 37  1  0  0  0  0
 31 41  1  0  0  0  0
 31 14  1  0  0  0  0
M  END
$$$$
