compound_97
  GFN2-xTB geometry (ORCA XTB2, DDCOSMO(water))

 38 45  0  0  0  0  0  0  0  0999 V2000
    7.3437   -5.9462    0.5999 Ru  0  0  0  0  0  0  0  0  0  0  0  0
    8.0844   -4.8113   -1.3482 C   0  0  0  0  0  0  0  0  0  0  0  0
    7.4209   -5.9896   -1.8059 C   0  0  0  0  0  0  0  0  0  0  0  0
    7.7752   -7.2676   -1.2542 C   0  0  0  0  0  0  0  0  0  0  0  0
    8.8266   -7.4049   -0.3585 C   0  0  0  0  0  0  0  0  0  0  0  0
    9.4793   -6.2353    0.1308 C   0  0  0  0  0  0  0  0  0  0  0  0
    9.0835   -4.9662   -0.3222 C   0  0  0  0  0  0  0  0  0  0  0  0
    6.4359   -5.8926   -2.8271 C   0  0  0  0  0  0  0  0  0  0  0  0
    7.2719   -8.1440   -1.6493 H   0  0  0  0  0  0  0  0  0  0  0  0
    5.6056   -5.0048    3.2092 H   0  0  0  0  0  0  0  0  0  0  0  0
   10.3282   -6.3318    0.7979 H   0  0  0  0  0  0  0  0  0  0  0  0
    9.6444   -4.1023    0.0103 H   0  0  0  0  0  0  0  0  0  0  0  0
    5.0112   -6.5649    0.6993 Cl  0  0  0  0  0  0  0  0  0  0  0  0
    7.5386   -6.6556    2.5611 N   0  0  0  0  0  0  0  0  0  0  0  0
    7.6795   -5.5191    3.4805 C   0  0  0  0  0  0  0  0  0  0  0  0
    7.5443   -3.5236    1.5985 H   0  0  0  0  0  0  0  0  0  0  0  0
    6.5872   -4.5322    3.0969 C   0  0  0  0  0  0  0  0  0  0  0  0
    6.7981   -4.2227    1.6742 N   0  0  0  0  0  0  0  0  0  0  0  0
    5.9515   -3.8039    1.2819 H   0  0  0  0  0  0  0  0  0  0  0  0
    6.6705   -7.1575    2.7801 H   0  0  0  0  0  0  0  0  0  0  0  0
    8.3176   -7.3069    2.6924 H   0  0  0  0  0  0  0  0  0  0  0  0
    8.6637   -5.0683    3.3214 H   0  0  0  0  0  0  0  0  0  0  0  0
    7.5824   -5.8333    4.5226 H   0  0  0  0  0  0  0  0  0  0  0  0
    6.6277   -3.6290    3.7099 H   0  0  0  0  0  0  0  0  0  0  0  0
    9.1602   -8.3903   -0.0555 H   0  0  0  0  0  0  0  0  0  0  0  0
    7.7266   -3.5347   -1.9169 C   0  0  0  0  0  0  0  0  0  0  0  0
    8.3133   -2.3237   -1.5070 C   0  0  0  0  0  0  0  0  0  0  0  0
    7.9438   -1.1310   -2.0760 C   0  0  0  0  0  0  0  0  0  0  0  0
    6.9718   -1.0922   -3.0790 C   0  0  0  0  0  0  0  0  0  0  0  0
    6.3780   -2.2550   -3.4965 C   0  0  0  0  0  0  0  0  0  0  0  0
    6.7358   -3.4909   -2.9304 C   0  0  0  0  0  0  0  0  0  0  0  0
    9.0638   -2.3133   -0.7353 H   0  0  0  0  0  0  0  0  0  0  0  0
    8.4032   -0.2111   -1.7490 H   0  0  0  0  0  0  0  0  0  0  0  0
    6.6894   -0.1488   -3.5211 H   0  0  0  0  0  0  0  0  0  0  0  0
    5.6221   -2.2404   -4.2682 H   0  0  0  0  0  0  0  0  0  0  0  0
    6.1122   -4.6914   -3.3676 C   0  0  0  0  0  0  0  0  0  0  0  0
    5.3682   -4.6269   -4.1479 H   0  0  0  0  0  0  0  0  0  0  0  0
    5.9539   -6.7997   -3.1656 H   0  0  0  0  0  0  0  0  0  0  0  0
 31 36  1  0  0  0  0
  3  4  1  0  0  0  0
  2 26  1  0  0  0  0
  8 36  2  0  0  0  0
 29 30  4  0  0  0  0
 27 28  4  0  0  0  0
  4  5  2  0  0  0  0
 28 29  4  0  0  0  0
  6  7  2  0  0  0  0
 30 31  4  0  0  0  0
 26 27  4  0  0  0  0
 15 17  1  0  0  0  0
 26 31  4  0  0  0  0
  3  8  1  0  0  0  0
  5  6  1  0  0  0  0
  2  3  2  0  0  0  0
 27 32  1  0  0  0  0
 28 33  1  0  0  0  0
 29 34  1  0  0  0  0
  2  7  1  0  0  0  0
 36 37  1  0  0  0  0
 30 35  1  0  0  0  0
  8 38  1  0  0  0  0
  7 12  1  0  0  0  0
  5 25  1  0  0  0  0
  6 11  1  0  0  0  0
  4  9  1  0  0  0  0
 17 24  1  0  0  0  0
 15 23  1  0  0  0  0
 15 22  1  0  0  0  0
 18 19  1  0  0  0  0
 10 17  1  0  0  0  0
 14 21  1  0  0  0  0
 16 18  1  0  0  0  0
 14 20  1  0  0  0  0
 14 15  1  0  0  0  0
 17 18  1  0  0  0  0
  1 13  1  0  0  0  0
  1 18  1  0  0  0  0
  1  2  1  0  0  0  0
  1  3  1  0  0  0  0
  1  4  1  0  0  0  0
  1  5  1  0  0  0  0
  1  6  1  0  0  0  0
  1 14  1  0  0  0  0
M  END
$$$$
