compound_15
  GFN2-xTB geometry (ORCA XTB2, DDCOSMO(water))

 52 59  0  0  0  0  0  0  0  0999 V2000
   -1.3100   -0.4126   -2.5176 C   0  0  0  0  0  0  0  0  0  0  0  0
   -1.4019   -0.5056   -1.1009 C   0  0  0  0  0  0  0  0  0  0  0  0
   -0.2869   -1.0849   -0.4383 C   0  0  0  0  0  0  0  0  0  0  0  0
    0.8228   -1.5143   -1.1871 C   0  0  0  0  0  0  0  0  0  0  0  0
    0.9060   -1.4147   -2.6094 C   0  0  0  0  0  0  0  0  0  0  0  0
   -0.1934   -0.8543   -3.2443 C   0  0  0  0  0  0  0  0  0  0  0  0
    4.4327   -3.2907   -0.6922 H   0  0  0  0  0  0  0  0  0  0  0  0
    5.6505   -3.6393   -2.8158 H   0  0  0  0  0  0  0  0  0  0  0  0
   -1.1716   -1.0149    2.6993 H   0  0  0  0  0  0  0  0  0  0  0  0
    4.6789   -2.9559   -4.9560 H   0  0  0  0  0  0  0  0  0  0  0  0
   -2.4707   -0.0904   -0.3071 C   0  0  0  0  0  0  0  0  0  0  0  0
   -2.4012   -0.2550    1.0772 C   0  0  0  0  0  0  0  0  0  0  0  0
   -1.2432   -0.8644    1.6289 C   0  0  0  0  0  0  0  0  0  0  0  0
   -0.2274   -1.2665    0.8985 N   0  0  0  0  0  0  0  0  0  0  0  0
   -3.3398    0.3537   -0.7670 H   0  0  0  0  0  0  0  0  0  0  0  0
   -3.3777    0.1866    1.8979 N   0  0  0  0  0  0  0  0  0  0  0  0
    2.1838   -1.9825   -2.9247 C   0  0  0  0  0  0  0  0  0  0  0  0
    2.7548   -2.3781   -1.6762 C   0  0  0  0  0  0  0  0  0  0  0  0
    1.9052   -2.0692   -0.6368 N   0  0  0  0  0  0  0  0  0  0  0  0
    2.4419   -1.8921   -5.0511 H   0  0  0  0  0  0  0  0  0  0  0  0
    4.0070   -2.9774   -1.6327 C   0  0  0  0  0  0  0  0  0  0  0  0
    4.6773   -3.1734   -2.8253 C   0  0  0  0  0  0  0  0  0  0  0  0
    4.1252   -2.7853   -4.0456 C   0  0  0  0  0  0  0  0  0  0  0  0
    2.8795   -2.1910   -4.1093 C   0  0  0  0  0  0  0  0  0  0  0  0
   -0.4634   -0.6113   -4.6770 C   0  0  0  0  0  0  0  0  0  0  0  0
   -1.7117   -0.0428   -4.7231 N   0  0  0  0  0  0  0  0  0  0  0  0
   -2.2860    0.1018   -3.4552 C   0  0  0  0  0  0  0  0  0  0  0  0
   -3.3953    0.5756   -3.2741 O   0  0  0  0  0  0  0  0  0  0  0  0
    0.2327   -0.8435   -5.6464 O   0  0  0  0  0  0  0  0  0  0  0  0
    0.2401   -4.8225    1.5165 O   0  0  0  0  0  0  0  0  0  0  0  0
    1.6072   -2.1740    1.4024 Ru  0  0  0  0  0  0  0  0  0  0  0  0
    0.8155   -3.8294    1.3946 C   0  0  0  0  0  0  0  0  0  0  0  0
   -2.1754    0.2281   -5.5772 H   0  0  0  0  0  0  0  0  0  0  0  0
    3.4892   -2.7554    1.8283 N   0  0  0  0  0  0  0  0  0  0  0  0
    3.8635   -3.9629    2.2562 C   0  0  0  0  0  0  0  0  0  0  0  0
    5.1540   -4.2452    2.6653 C   0  0  0  0  0  0  0  0  0  0  0  0
    6.1048   -3.2363    2.6371 C   0  0  0  0  0  0  0  0  0  0  0  0
    5.7187   -1.9834    2.1936 C   0  0  0  0  0  0  0  0  0  0  0  0
    4.4067   -1.7754    1.7939 C   0  0  0  0  0  0  0  0  0  0  0  0
    7.1180   -3.4229    2.9530 H   0  0  0  0  0  0  0  0  0  0  0  0
    2.5079   -0.2861    1.5633 N   0  0  0  0  0  0  0  0  0  0  0  0
    5.3997   -5.2395    2.9980 H   0  0  0  0  0  0  0  0  0  0  0  0
    6.4218   -1.1681    2.1506 H   0  0  0  0  0  0  0  0  0  0  0  0
    3.0995   -4.7306    2.2655 H   0  0  0  0  0  0  0  0  0  0  0  0
    1.2068   -2.0051    3.8052 Cl  0  0  0  0  0  0  0  0  0  0  0  0
    2.1238    0.4703    0.9937 H   0  0  0  0  0  0  0  0  0  0  0  0
    2.4028   -0.0048    2.5454 H   0  0  0  0  0  0  0  0  0  0  0  0
    3.9346   -0.4531    1.2565 C   0  0  0  0  0  0  0  0  0  0  0  0
    4.0566   -0.4687    0.1658 H   0  0  0  0  0  0  0  0  0  0  0  0
    4.5418    0.3616    1.6660 H   0  0  0  0  0  0  0  0  0  0  0  0
   -3.3618   -0.0802    2.8653 H   0  0  0  0  0  0  0  0  0  0  0  0
   -4.2464    0.4881    1.4949 H   0  0  0  0  0  0  0  0  0  0  0  0
  1  2  1  0  0  0  0
  5 17  1  0  0  0  0
  1 27  1  0  0  0  0
  6 25  1  0  0  0  0
  4 19  1  0  0  0  0
 13 14  2  0  0  0  0
 23 24  4  0  0  0  0
 21 22  4  0  0  0  0
 35 36  4  0  0  0  0
 37 38  4  0  0  0  0
 12 16  1  0  0  0  0
 36 37  4  0  0  0  0
  3 14  1  0  0  0  0
 38 39  4  0  0  0  0
  5  6  1  0  0  0  0
 18 21  4  0  0  0  0
 17 24  4  0  0  0  0
 39 48  1  0  0  0  0
 22 23  4  0  0  0  0
  2 11  1  0  0  0  0
 11 12  2  0  0  0  0
 34 35  4  0  0  0  0
  1  6  2  0  0  0  0
  3  4  1  0  0  0  0
 34 39  4  0  0  0  0
 25 26  1  0  0  0  0
 18 19  1  0  0  0  0
 12 13  1  0  0  0  0
  2  3  2  0  0  0  0
  4  5  2  0  0  0  0
 17 18  4  0  0  0  0
 16 51  1  0  0  0  0
 16 52  1  0  0  0  0
 36 42  1  0  0  0  0
 38 43  1  0  0  0  0
 37 40  1  0  0  0  0
 26 27  1  0  0  0  0
  7 21  1  0  0  0  0
 11 15  1  0  0  0  0
  8 22  1  0  0  0  0
 10 23  1  0  0  0  0
 26 33  1  0  0  0  0
 20 24  1  0  0  0  0
 35 44  1  0  0  0  0
  9 13  1  0  0  0  0
 41 46  1  0  0  0  0
 48 50  1  0  0  0  0
 48 49  1  0  0  0  0
 41 47  1  0  0  0  0
 41 48  1  0  0  0  0
 30 32  2  0  0  0  0
 25 29  2  0  0  0  0
 27 28  2  0  0  0  0
 31 32  1  0  0  0  0
 31 14  1  0  0  0  0
 31 19  1  0  0  0  0
 31 41  1  0  0  0  0
 31 45  1  0  0  0  0
 31 34  1  0  0  0  0
M  END
$$$$
