compound_18
  GFN2-xTB geometry (ORCA XTB2, DDCOSMO(water))

 65 73  0  0  0  0  0  0  0  0999 V2000
   -1.2501   -0.8645   -1.8845 C   0  0  0  0  0  0  0  0  0  0  0  0
   -1.3938   -0.7837   -0.4676 C   0  0  0  0  0  0  0  0  0  0  0  0
   -0.2879   -1.1963    0.3184 C   0  0  0  0  0  0  0  0  0  0  0  0
    0.8662   -1.7046   -0.3142 C   0  0  0  0  0  0  0  0  0  0  0  0
    0.9871   -1.8282   -1.7277 C   0  0  0  0  0  0  0  0  0  0  0  0
   -0.0943   -1.3976   -2.4799 C   0  0  0  0  0  0  0  0  0  0  0  0
    4.4391   -3.4812    0.5286 H   0  0  0  0  0  0  0  0  0  0  0  0
   -5.8004    0.3468   -1.7829 H   0  0  0  0  0  0  0  0  0  0  0  0
   -1.2841   -0.6958    3.3790 H   0  0  0  0  0  0  0  0  0  0  0  0
    4.7776   -3.8005   -3.7171 H   0  0  0  0  0  0  0  0  0  0  0  0
   -2.5661   -0.4030    0.2530 C   0  0  0  0  0  0  0  0  0  0  0  0
   -2.4815   -0.3301    1.6398 C   0  0  0  0  0  0  0  0  0  0  0  0
   -1.3305   -0.7325    2.2989 C   0  0  0  0  0  0  0  0  0  0  0  0
   -0.2665   -1.1940    1.6685 N   0  0  0  0  0  0  0  0  0  0  0  0
    4.3618   -1.1086    1.6850 H   0  0  0  0  0  0  0  0  0  0  0  0
   -3.3182   -0.0011    2.2299 H   0  0  0  0  0  0  0  0  0  0  0  0
    2.2592   -2.4503   -1.9259 C   0  0  0  0  0  0  0  0  0  0  0  0
    2.7876   -2.6561   -0.6131 C   0  0  0  0  0  0  0  0  0  0  0  0
    1.9301   -2.1803    0.3459 N   0  0  0  0  0  0  0  0  0  0  0  0
    2.5553   -2.6979   -4.0331 H   0  0  0  0  0  0  0  0  0  0  0  0
    4.0198   -3.2784   -0.4420 C   0  0  0  0  0  0  0  0  0  0  0  0
    4.6810   -3.6646   -1.5864 C   0  0  0  0  0  0  0  0  0  0  0  0
    4.1948   -3.4661   -2.8748 C   0  0  0  0  0  0  0  0  0  0  0  0
    2.9694   -2.8559   -3.0488 C   0  0  0  0  0  0  0  0  0  0  0  0
   -0.2804   -1.4176   -3.9401 C   0  0  0  0  0  0  0  0  0  0  0  0
   -1.5060   -0.8494   -4.1533 N   0  0  0  0  0  0  0  0  0  0  0  0
   -2.1452   -0.4695   -2.9661 C   0  0  0  0  0  0  0  0  0  0  0  0
   -3.2152    0.1087   -2.9825 O   0  0  0  0  0  0  0  0  0  0  0  0
    0.4582   -1.8385   -4.8114 O   0  0  0  0  0  0  0  0  0  0  0  0
   -1.9185   -0.7067   -5.0631 H   0  0  0  0  0  0  0  0  0  0  0  0
    1.3028   -2.3608    2.3529 Ru  0  0  0  0  0  0  0  0  0  0  0  0
   -5.7938    2.0442    0.8869 H   0  0  0  0  0  0  0  0  0  0  0  0
   -4.7202    2.2647   -0.5051 H   0  0  0  0  0  0  0  0  0  0  0  0
    2.5618   -0.5499    3.0643 S   0  0  0  0  0  0  0  0  0  0  0  0
    2.5022   -0.6425    4.9234 C   0  0  0  0  0  0  0  0  0  0  0  0
    1.1946   -1.1858    5.4551 C   0  0  0  0  0  0  0  0  0  0  0  0
    0.4028   -2.5569    4.4870 S   0  0  0  0  0  0  0  0  0  0  0  0
    1.2388   -4.0629    5.1276 C   0  0  0  0  0  0  0  0  0  0  0  0
    2.7082   -4.1639    4.8020 C   0  0  0  0  0  0  0  0  0  0  0  0
    3.0864   -3.7685    3.0157 S   0  0  0  0  0  0  0  0  0  0  0  0
    4.5184   -2.5994    3.2505 C   0  0  0  0  0  0  0  0  0  0  0  0
    4.2597   -1.1877    2.7686 C   0  0  0  0  0  0  0  0  0  0  0  0
    4.9441   -0.4888    3.2488 H   0  0  0  0  0  0  0  0  0  0  0  0
    2.6294    0.3870    5.2566 H   0  0  0  0  0  0  0  0  0  0  0  0
    3.3559   -1.2292    5.2423 H   0  0  0  0  0  0  0  0  0  0  0  0
    0.4237   -0.4164    5.4437 H   0  0  0  0  0  0  0  0  0  0  0  0
    1.3120   -1.5609    6.4698 H   0  0  0  0  0  0  0  0  0  0  0  0
    0.6669   -4.8713    4.6665 H   0  0  0  0  0  0  0  0  0  0  0  0
    1.0818   -4.0748    6.2056 H   0  0  0  0  0  0  0  0  0  0  0  0
    3.0477   -5.1903    4.9375 H   0  0  0  0  0  0  0  0  0  0  0  0
    3.2902   -3.5027    5.4370 H   0  0  0  0  0  0  0  0  0  0  0  0
    4.7884   -2.6330    4.3020 H   0  0  0  0  0  0  0  0  0  0  0  0
    5.3361   -3.0349    2.6767 H   0  0  0  0  0  0  0  0  0  0  0  0
   -3.6718   -0.1910   -0.4603 O   0  0  0  0  0  0  0  0  0  0  0  0
    5.8857   -4.2815   -1.4476 F   0  0  0  0  0  0  0  0  0  0  0  0
   -6.9613    0.2145   -0.4446 H   0  0  0  0  0  0  0  0  0  0  0  0
   -6.0351   -1.2005   -0.9777 H   0  0  0  0  0  0  0  0  0  0  0  0
   -5.0438   -0.3314    1.0884 H   0  0  0  0  0  0  0  0  0  0  0  0
   -4.8969    0.2343    0.1602 C   0  0  0  0  0  0  0  0  0  0  0  0
   -4.8574    1.7345    0.4346 C   0  0  0  0  0  0  0  0  0  0  0  0
   -6.0037   -0.1245   -0.8241 C   0  0  0  0  0  0  0  0  0  0  0  0
   -4.0358    1.9890    1.0986 H   0  0  0  0  0  0  0  0  0  0  0  0
    0.1683   -3.9845    1.6481 N   0  0  0  0  0  0  0  0  0  0  0  0
   -0.4526   -4.2295    0.6877 C   0  0  0  0  0  0  0  0  0  0  0  0
   -1.3374   -4.6236   -0.5923 S   0  0  0  0  0  0  0  0  0  0  0  0
  2 11  1  0  0  0  0
  5 17  1  0  0  0  0
 11 54  1  0  0  0  0
  1 27  1  0  0  0  0
  6 25  1  0  0  0  0
  4 19  1  0  0  0  0
 21 22  4  0  0  0  0
 22 55  1  0  0  0  0
 23 24  4  0  0  0  0
 13 14  2  0  0  0  0
  5  6  4  0  0  0  0
 12 13  1  0  0  0  0
  3 14  1  0  0  0  0
 17 24  4  0  0  0  0
 18 21  4  0  0  0  0
 22 23  4  0  0  0  0
 11 12  2  0  0  0  0
 38 39  1  0  0  0  0
 35 36  1  0  0  0  0
 41 42  1  0  0  0  0
 25 26  1  0  0  0  0
  1  6  4  0  0  0  0
 18 19  1  0  0  0  0
  3  4  4  0  0  0  0
 59 61  1  0  0  0  0
 59 60  1  0  0  0  0
  2  3  4  0  0  0  0
  4  5  4  0  0  0  0
  1  2  4  0  0  0  0
 17 18  4  0  0  0  0
 12 16  1  0  0  0  0
 54 59  1  0  0  0  0
  7 21  1  0  0  0  0
 10 23  1  0  0  0  0
 26 27  1  0  0  0  0
 20 24  1  0  0  0  0
 26 30  1  0  0  0  0
  9 13  1  0  0  0  0
 35 45  1  0  0  0  0
 56 61  1  0  0  0  0
 32 60  1  0  0  0  0
 39 51  1  0  0  0  0
 41 52  1  0  0  0  0
 34 42  1  0  0  0  0
 37 38  1  0  0  0  0
 60 62  1  0  0  0  0
 57 61  1  0  0  0  0
  8 61  1  0  0  0  0
 33 60  1  0  0  0  0
 36 47  1  0  0  0  0
 36 46  1  0  0  0  0
 38 49  1  0  0  0  0
 35 44  1  0  0  0  0
 39 50  1  0  0  0  0
 42 43  1  0  0  0  0
 41 53  1  0  0  0  0
 15 42  1  0  0  0  0
 38 48  1  0  0  0  0
 58 59  1  0  0  0  0
 36 37  1  0  0  0  0
 34 35  1  0  0  0  0
 40 41  1  0  0  0  0
 39 40  1  0  0  0  0
 63 64  2  0  0  0  0
 27 28  2  0  0  0  0
 25 29  2  0  0  0  0
 64 65  2  0  0  0  0
 31 40  1  0  0  0  0
 31 63  1  0  0  0  0
 31 14  1  0  0  0  0
 31 19  1  0  0  0  0
 31 34  1  0  0  0  0
 31 37  1  0  0  0  0
M  END
$$$$
