compound_107
  GFN2-xTB geometry (ORCA XTB2, DDCOSMO(water))

 41 47  0  0  0  0  0  0  0  0999 V2000
    9.8922   -3.7551   -0.6236 Ru  0  0  0  0  0  0  0  0  0  0  0  0
   11.8668   -4.3298   -1.6617 C   0  0  0  0  0  0  0  0  0  0  0  0
   10.7833   -4.6832   -2.4830 C   0  0  0  0  0  0  0  0  0  0  0  0
    9.7551   -5.5529   -2.0129 C   0  0  0  0  0  0  0  0  0  0  0  0
    9.8560   -6.0203   -0.6836 C   0  0  0  0  0  0  0  0  0  0  0  0
   10.9683   -5.6955    0.1341 C   0  0  0  0  0  0  0  0  0  0  0  0
   11.9909   -4.8607   -0.3462 C   0  0  0  0  0  0  0  0  0  0  0  0
    7.1594   -2.9682    0.3545 N   0  0  0  0  0  0  0  0  0  0  0  0
    8.6802   -5.3917   -3.8321 H   0  0  0  0  0  0  0  0  0  0  0  0
    6.1219   -2.9743    1.2153 C   0  0  0  0  0  0  0  0  0  0  0  0
   11.0606   -6.1469    1.1150 H   0  0  0  0  0  0  0  0  0  0  0  0
    4.9689   -2.2669    0.9708 C   0  0  0  0  0  0  0  0  0  0  0  0
    8.9938   -7.4731   -3.3778 C   0  0  0  0  0  0  0  0  0  0  0  0
    8.2164   -3.7108    0.6829 O   0  0  0  0  0  0  0  0  0  0  0  0
    9.9710   -7.5190   -3.8510 H   0  0  0  0  0  0  0  0  0  0  0  0
   13.1794   -5.0731    1.4232 H   0  0  0  0  0  0  0  0  0  0  0  0
    9.1163   -6.7148   -0.3027 H   0  0  0  0  0  0  0  0  0  0  0  0
   10.7578   -4.3414   -3.5134 H   0  0  0  0  0  0  0  0  0  0  0  0
   13.2183   -4.5761    0.4582 C   0  0  0  0  0  0  0  0  0  0  0  0
   12.6715   -3.7211   -2.0600 H   0  0  0  0  0  0  0  0  0  0  0  0
    8.4759   -2.2808   -1.8601 S   0  0  0  0  0  0  0  0  0  0  0  0
    8.2455   -7.8163   -4.0859 H   0  0  0  0  0  0  0  0  0  0  0  0
    8.6728   -6.0371   -2.9479 C   0  0  0  0  0  0  0  0  0  0  0  0
    8.9914   -8.1369   -2.5175 H   0  0  0  0  0  0  0  0  0  0  0  0
   13.3153   -3.5023    0.6257 H   0  0  0  0  0  0  0  0  0  0  0  0
   10.6902   -1.8187    0.6234 Cl  0  0  0  0  0  0  0  0  0  0  0  0
    7.1185   -4.9494   -1.9143 H   0  0  0  0  0  0  0  0  0  0  0  0
    5.9539   -0.9785   -2.0132 H   0  0  0  0  0  0  0  0  0  0  0  0
    7.1168   -2.2580   -0.7921 C   0  0  0  0  0  0  0  0  0  0  0  0
    5.9615   -1.5289   -1.0876 C   0  0  0  0  0  0  0  0  0  0  0  0
    6.2790   -3.5748    2.0981 H   0  0  0  0  0  0  0  0  0  0  0  0
    4.8990   -1.5287   -0.2204 C   0  0  0  0  0  0  0  0  0  0  0  0
   14.0988   -4.9095   -0.0886 H   0  0  0  0  0  0  0  0  0  0  0  0
    7.2850   -5.9517   -2.3117 C   0  0  0  0  0  0  0  0  0  0  0  0
    7.1727   -6.6699   -1.5048 H   0  0  0  0  0  0  0  0  0  0  0  0
    6.5244   -6.1528   -3.0599 H   0  0  0  0  0  0  0  0  0  0  0  0
    4.0113   -0.9628   -0.4504 H   0  0  0  0  0  0  0  0  0  0  0  0
    3.8301   -2.2861    1.9333 C   0  0  0  0  0  0  0  0  0  0  0  0
    4.0627   -2.8955    2.7999 H   0  0  0  0  0  0  0  0  0  0  0  0
    2.9423   -2.6817    1.4453 H   0  0  0  0  0  0  0  0  0  0  0  0
    3.6055   -1.2732    2.2597 H   0  0  0  0  0  0  0  0  0  0  0  0
 30 32  2  0  0  0  0
 10 12  2  0  0  0  0
 12 38  1  0  0  0  0
  8 10  1  0  0  0  0
  7 19  1  0  0  0  0
  8 29  1  0  0  0  0
 29 30  1  0  0  0  0
  8 14  1  0  0  0  0
  4 23  1  0  0  0  0
 12 32  1  0  0  0  0
  6  7  4  0  0  0  0
  2  3  4  0  0  0  0
  4  5  4  0  0  0  0
 23 34  1  0  0  0  0
  5  6  4  0  0  0  0
 13 23  1  0  0  0  0
  2  7  4  0  0  0  0
  3  4  4  0  0  0  0
 28 30  1  0  0  0  0
 32 37  1  0  0  0  0
 10 31  1  0  0  0  0
  6 11  1  0  0  0  0
  5 17  1  0  0  0  0
 38 39  1  0  0  0  0
  2 20  1  0  0  0  0
 34 36  1  0  0  0  0
 13 22  1  0  0  0  0
  3 18  1  0  0  0  0
 34 35  1  0  0  0  0
 16 19  1  0  0  0  0
 13 24  1  0  0  0  0
 13 15  1  0  0  0  0
 38 40  1  0  0  0  0
 38 41  1  0  0  0  0
 19 33  1  0  0  0  0
 27 34  1  0  0  0  0
 19 25  1  0  0  0  0
  9 23  1  0  0  0  0
 21 29  2  0  0  0  0
  1  4  1  0  0  0  0
  1  5  1  0  0  0  0
  1 14  1  0  0  0  0
  1 21  1  0  0  0  0
  1  2  1  0  0  0  0
  1  3  1  0  0  0  0
  1  6  1  0  0  0  0
  1 26  1  0  0  0  0
M  END
$$$$
