compound_11
  GFN2-xTB geometry (ORCA XTB2, DDCOSMO(water))

 57 64  0  0  0  0  0  0  0  0999 V2000
    5.4886   -2.4905    2.5675 H   0  0  0  0  0  0  0  0  0  0  0  0
   -0.8036   -0.8758   -0.7759 C   0  0  0  0  0  0  0  0  0  0  0  0
    0.1380   -1.6057   -0.0493 C   0  0  0  0  0  0  0  0  0  0  0  0
    1.4414   -2.0294   -0.5600 C   0  0  0  0  0  0  0  0  0  0  0  0
    4.9424   -1.6807    4.0394 H   0  0  0  0  0  0  0  0  0  0  0  0
    0.5392   -5.6590    1.8347 O   0  0  0  0  0  0  0  0  0  0  0  0
    4.5930    0.0168    2.4114 H   0  0  0  0  0  0  0  0  0  0  0  0
    4.0860   -0.9227    2.1878 C   0  0  0  0  0  0  0  0  0  0  0  0
   -1.5325   -2.2068    2.7064 H   0  0  0  0  0  0  0  0  0  0  0  0
    6.5647   -5.0910   -1.7688 H   0  0  0  0  0  0  0  0  0  0  0  0
   -2.0417   -0.6139   -0.2216 C   0  0  0  0  0  0  0  0  0  0  0  0
   -2.3254   -1.1008    1.0474 C   0  0  0  0  0  0  0  0  0  0  0  0
   -1.3453   -1.8084    1.7168 C   0  0  0  0  0  0  0  0  0  0  0  0
   -0.1468   -2.0421    1.1922 N   0  0  0  0  0  0  0  0  0  0  0  0
   -2.7759   -0.0484   -0.7727 H   0  0  0  0  0  0  0  0  0  0  0  0
   -3.2840   -0.9346    1.5087 H   0  0  0  0  0  0  0  0  0  0  0  0
    3.4881   -2.2695    5.4910 H   0  0  0  0  0  0  0  0  0  0  0  0
    3.6532   -4.0239    5.6627 H   0  0  0  0  0  0  0  0  0  0  0  0
    2.1784   -2.8827    0.2778 C   0  0  0  0  0  0  0  0  0  0  0  0
    5.3504   -2.8109   -6.0070 H   0  0  0  0  0  0  0  0  0  0  0  0
    3.3387   -3.4985   -0.2654 C   0  0  0  0  0  0  0  0  0  0  0  0
    3.8175   -3.1142   -1.5487 C   0  0  0  0  0  0  0  0  0  0  0  0
    3.1045   -2.1625   -2.3076 C   0  0  0  0  0  0  0  0  0  0  0  0
    1.9079   -1.6644   -1.8271 C   0  0  0  0  0  0  0  0  0  0  0  0
    2.0365    0.9970    4.0555 H   0  0  0  0  0  0  0  0  0  0  0  0
    3.0272   -0.3663    4.5906 H   0  0  0  0  0  0  0  0  0  0  0  0
   -0.0184   -0.1568    4.3665 H   0  0  0  0  0  0  0  0  0  0  0  0
    0.9301   -0.5657    5.8088 H   0  0  0  0  0  0  0  0  0  0  0  0
    1.2900   -4.3960    5.3611 H   0  0  0  0  0  0  0  0  0  0  0  0
    4.2218   -1.1525    1.1291 H   0  0  0  0  0  0  0  0  0  0  0  0
    1.4513   -2.8313    2.1897 Ru  0  0  0  0  0  0  0  0  0  0  0  0
    0.8644   -4.5714    2.0056 C   0  0  0  0  0  0  0  0  0  0  0  0
    1.4256   -3.0383    6.5015 H   0  0  0  0  0  0  0  0  0  0  0  0
    2.2938   -0.6035    2.3054 S   0  0  0  0  0  0  0  0  0  0  0  0
    2.1146   -0.0911    4.0721 C   0  0  0  0  0  0  0  0  0  0  0  0
    0.8760   -0.6677    4.7257 C   0  0  0  0  0  0  0  0  0  0  0  0
    0.5042   -2.4330    4.3824 S   0  0  0  0  0  0  0  0  0  0  0  0
    1.6281   -3.3646    5.4814 C   0  0  0  0  0  0  0  0  0  0  0  0
    3.0981   -3.2292    5.1635 C   0  0  0  0  0  0  0  0  0  0  0  0
    3.4756   -3.4449    3.3592 S   0  0  0  0  0  0  0  0  0  0  0  0
    4.6279   -2.0399    3.0620 C   0  0  0  0  0  0  0  0  0  0  0  0
    4.9931   -3.6935   -2.0660 C   0  0  0  0  0  0  0  0  0  0  0  0
    5.6671   -4.6649   -1.3456 C   0  0  0  0  0  0  0  0  0  0  0  0
    5.1677   -5.0942   -0.1182 C   0  0  0  0  0  0  0  0  0  0  0  0
    4.0308   -4.5283    0.4058 C   0  0  0  0  0  0  0  0  0  0  0  0
    3.6282   -4.9054    1.3345 H   0  0  0  0  0  0  0  0  0  0  0  0
    5.6771   -5.8819    0.4129 H   0  0  0  0  0  0  0  0  0  0  0  0
    5.4928   -3.2805   -3.3758 C   0  0  0  0  0  0  0  0  0  0  0  0
    4.7636   -2.3267   -4.0608 N   0  0  0  0  0  0  0  0  0  0  0  0
    3.5894   -1.7430   -3.6150 C   0  0  0  0  0  0  0  0  0  0  0  0
    3.0026   -0.9173   -4.3080 O   0  0  0  0  0  0  0  0  0  0  0  0
    6.5161   -3.7348   -3.8755 O   0  0  0  0  0  0  0  0  0  0  0  0
   -0.5652   -0.5238   -1.7652 H   0  0  0  0  0  0  0  0  0  0  0  0
    1.3698   -0.9704   -2.4552 H   0  0  0  0  0  0  0  0  0  0  0  0
    5.2798   -1.9357   -5.3616 C   0  0  0  0  0  0  0  0  0  0  0  0
    6.2757   -1.5083   -5.2474 H   0  0  0  0  0  0  0  0  0  0  0  0
    4.6000   -1.2037   -5.7903 H   0  0  0  0  0  0  0  0  0  0  0  0
 21 22  1  0  0  0  0
 23 50  1  0  0  0  0
 42 48  1  0  0  0  0
  3  4  1  0  0  0  0
 44 45  4  0  0  0  0
  2 11  4  0  0  0  0
 12 13  4  0  0  0  0
 23 24  4  0  0  0  0
 42 43  4  0  0  0  0
 11 12  4  0  0  0  0
 13 14  4  0  0  0  0
 43 44  4  0  0  0  0
  2  3  4  0  0  0  0
  4 24  4  0  0  0  0
 38 39  1  0  0  0  0
 35 36  1  0  0  0  0
  4 19  4  0  0  0  0
  8 41  1  0  0  0  0
 22 42  4  0  0  0  0
  3 14  4  0  0  0  0
 22 23  4  0  0  0  0
 21 45  4  0  0  0  0
 48 49  1  0  0  0  0
 19 21  4  0  0  0  0
 49 50  1  0  0  0  0
 12 16  1  0  0  0  0
  2 53  1  0  0  0  0
 44 47  1  0  0  0  0
 11 15  1  0  0  0  0
  8 34  1  0  0  0  0
 24 54  1  0  0  0  0
 10 43  1  0  0  0  0
 37 38  1  0  0  0  0
 45 46  1  0  0  0  0
  9 13  1  0  0  0  0
 26 35  1  0  0  0  0
 36 37  1  0  0  0  0
 17 39  1  0  0  0  0
 55 57  1  0  0  0  0
  5 41  1  0  0  0  0
 40 41  1  0  0  0  0
 28 36  1  0  0  0  0
 20 55  1  0  0  0  0
 55 56  1  0  0  0  0
 33 38  1  0  0  0  0
  1 41  1  0  0  0  0
 18 39  1  0  0  0  0
  7  8  1  0  0  0  0
 27 36  1  0  0  0  0
 25 35  1  0  0  0  0
  8 30  1  0  0  0  0
 29 38  1  0  0  0  0
 34 35  1  0  0  0  0
 39 40  1  0  0  0  0
 49 55  1  0  0  0  0
  6 32  2  0  0  0  0
 48 52  2  0  0  0  0
 50 51  2  0  0  0  0
 31 32  1  0  0  0  0
 31 14  1  0  0  0  0
 31 19  1  0  0  0  0
 31 34  1  0  0  0  0
 31 37  1  0  0  0  0
 31 40  1  0  0  0  0
M  END
$$$$
