compound_90
  GFN2-xTB geometry (ORCA XTB2, DDCOSMO(water))

 48 55  0  0  0  0  0  0  0  0999 V2000
   -0.3764   -0.4229    1.4176 Ru  0  0  0  0  0  0  0  0  0  0  0  0
    0.3221   -0.2334   -0.9785 C   0  0  0  0  0  0  0  0  0  0  0  0
   -0.5005    0.8489   -0.5512 C   0  0  0  0  0  0  0  0  0  0  0  0
   -0.0846    1.7226    0.4673 C   0  0  0  0  0  0  0  0  0  0  0  0
    1.1085    1.4776    1.1901 C   0  0  0  0  0  0  0  0  0  0  0  0
    1.8520    0.3281    0.8503 C   0  0  0  0  0  0  0  0  0  0  0  0
    1.4948   -0.4845   -0.2525 C   0  0  0  0  0  0  0  0  0  0  0  0
   -2.7373    0.4698    2.8933 C   0  0  0  0  0  0  0  0  0  0  0  0
    1.5935    2.4525    2.2350 C   0  0  0  0  0  0  0  0  0  0  0  0
   -1.5020    0.6673    2.9742 O   0  0  0  0  0  0  0  0  0  0  0  0
   -3.5394    1.4967    2.1067 C   0  0  0  0  0  0  0  0  0  0  0  0
   -3.9656   -2.8913    1.5817 C   0  0  0  0  0  0  0  0  0  0  0  0
   -5.3435   -2.8315    1.3809 C   0  0  0  0  0  0  0  0  0  0  0  0
   -6.0892   -3.9846    1.2095 C   0  0  0  0  0  0  0  0  0  0  0  0
   -5.4620   -5.2182    1.2390 C   0  0  0  0  0  0  0  0  0  0  0  0
   -4.0883   -5.2977    1.4066 C   0  0  0  0  0  0  0  0  0  0  0  0
   -2.1017   -1.5604    1.1028 O   0  0  0  0  0  0  0  0  0  0  0  0
    0.7897    3.1722    2.4217 H   0  0  0  0  0  0  0  0  0  0  0  0
    2.8209    3.2040    1.7088 C   0  0  0  0  0  0  0  0  0  0  0  0
   -0.6548    2.6230    0.6701 H   0  0  0  0  0  0  0  0  0  0  0  0
   -2.9864    2.7143    2.1558 F   0  0  0  0  0  0  0  0  0  0  0  0
   -3.5842    1.1740    0.7807 F   0  0  0  0  0  0  0  0  0  0  0  0
   -3.3646   -0.8797    3.0634 C   0  0  0  0  0  0  0  0  0  0  0  0
   -4.8131    1.6260    2.4940 F   0  0  0  0  0  0  0  0  0  0  0  0
    2.7908    0.1330    1.3556 H   0  0  0  0  0  0  0  0  0  0  0  0
   -2.8635   -1.3941    3.8928 H   0  0  0  0  0  0  0  0  0  0  0  0
    0.4699   -1.9732   -2.2150 H   0  0  0  0  0  0  0  0  0  0  0  0
   -1.3886    1.0900   -1.1270 H   0  0  0  0  0  0  0  0  0  0  0  0
   -4.4304   -0.8205    3.2730 H   0  0  0  0  0  0  0  0  0  0  0  0
    2.1631   -1.2772   -0.5652 H   0  0  0  0  0  0  0  0  0  0  0  0
   -3.5919   -6.2540    1.4113 H   0  0  0  0  0  0  0  0  0  0  0  0
   -6.2392   -1.1407    1.2097 Br  0  0  0  0  0  0  0  0  0  0  0  0
   -7.1523   -3.9087    1.0483 H   0  0  0  0  0  0  0  0  0  0  0  0
   -6.0482   -6.1141    1.1156 H   0  0  0  0  0  0  0  0  0  0  0  0
    0.2537   -2.1585    2.9384 Cl  0  0  0  0  0  0  0  0  0  0  0  0
   -2.2747   -4.1831    1.7089 H   0  0  0  0  0  0  0  0  0  0  0  0
   -3.3452   -4.1448    1.5657 C   0  0  0  0  0  0  0  0  0  0  0  0
   -3.0838   -1.7345    1.8223 C   0  0  0  0  0  0  0  0  0  0  0  0
   -0.0206   -1.0042   -2.2113 C   0  0  0  0  0  0  0  0  0  0  0  0
    0.3158   -0.4411   -3.0820 H   0  0  0  0  0  0  0  0  0  0  0  0
   -1.0958   -1.1436   -2.2947 H   0  0  0  0  0  0  0  0  0  0  0  0
    1.9074    1.7406    3.5536 C   0  0  0  0  0  0  0  0  0  0  0  0
    2.5793    3.7227    0.7852 H   0  0  0  0  0  0  0  0  0  0  0  0
    3.6384    2.5140    1.5199 H   0  0  0  0  0  0  0  0  0  0  0  0
    3.1435    3.9331    2.4461 H   0  0  0  0  0  0  0  0  0  0  0  0
    2.0690    2.4703    4.3413 H   0  0  0  0  0  0  0  0  0  0  0  0
    2.7975    1.1232    3.4687 H   0  0  0  0  0  0  0  0  0  0  0  0
    1.0718    1.0982    3.8453 H   0  0  0  0  0  0  0  0  0  0  0  0
 11 24  1  0  0  0  0
 11 21  1  0  0  0  0
 12 38  1  0  0  0  0
 16 37  4  0  0  0  0
 11 22  1  0  0  0  0
 13 14  4  0  0  0  0
 14 15  4  0  0  0  0
  2 39  1  0  0  0  0
 15 16  4  0  0  0  0
  8 23  1  0  0  0  0
 12 13  4  0  0  0  0
  5  9  1  0  0  0  0
 12 37  4  0  0  0  0
  2  7  4  0  0  0  0
  3  4  4  0  0  0  0
  5  6  4  0  0  0  0
  8 11  1  0  0  0  0
  6  7  4  0  0  0  0
  4  5  4  0  0  0  0
  9 42  1  0  0  0  0
  9 19  1  0  0  0  0
 23 38  1  0  0  0  0
  2  3  4  0  0  0  0
 13 32  1  0  0  0  0
 16 31  1  0  0  0  0
 15 34  1  0  0  0  0
 14 33  1  0  0  0  0
 36 37  1  0  0  0  0
  7 30  1  0  0  0  0
  6 25  1  0  0  0  0
  4 20  1  0  0  0  0
  3 28  1  0  0  0  0
 42 46  1  0  0  0  0
 19 45  1  0  0  0  0
 27 39  1  0  0  0  0
 19 44  1  0  0  0  0
 42 47  1  0  0  0  0
 19 43  1  0  0  0  0
 39 41  1  0  0  0  0
 23 29  1  0  0  0  0
 39 40  1  0  0  0  0
 42 48  1  0  0  0  0
  9 18  1  0  0  0  0
 23 26  1  0  0  0  0
 17 38  2  0  0  0  0
  8 10  2  0  0  0  0
  1  2  1  0  0  0  0
  1  3  1  0  0  0  0
  1  4  1  0  0  0  0
  1  5  1  0  0  0  0
  1  6  1  0  0  0  0
  1  7  1  0  0  0  0
  1 10  1  0  0  0  0
  1 17  1  0  0  0  0
  1 35  1  0  0  0  0
M  END
$$$$
