compound_108
  GFN2-xTB geometry (ORCA XTB2, DDCOSMO(water))

 41 46  0  0  0  0  0  0  0  0999 V2000
    9.4448   -3.7446   -1.1998 Ru  0  0  0  0  0  0  0  0  0  0  0  0
   11.6671   -4.4174   -1.3160 C   0  0  0  0  0  0  0  0  0  0  0  0
   11.0149   -4.8030   -2.5160 C   0  0  0  0  0  0  0  0  0  0  0  0
    9.8754   -5.6316   -2.4948 C   0  0  0  0  0  0  0  0  0  0  0  0
    9.3465   -6.0004   -1.2220 C   0  0  0  0  0  0  0  0  0  0  0  0
    9.9833   -5.5940   -0.0352 C   0  0  0  0  0  0  0  0  0  0  0  0
   11.1843   -4.8240   -0.0621 C   0  0  0  0  0  0  0  0  0  0  0  0
    7.2824   -2.3971    0.4126 N   0  0  0  0  0  0  0  0  0  0  0  0
    9.5651   -5.5122   -4.5885 H   0  0  0  0  0  0  0  0  0  0  0  0
    6.7868   -1.7714    1.5093 C   0  0  0  0  0  0  0  0  0  0  0  0
    9.6097   -5.9479    0.9203 H   0  0  0  0  0  0  0  0  0  0  0  0
    5.4989   -1.2826    1.4824 C   0  0  0  0  0  0  0  0  0  0  0  0
   10.1436   -7.5151   -4.0426 C   0  0  0  0  0  0  0  0  0  0  0  0
    8.5160   -2.8905    0.5060 O   0  0  0  0  0  0  0  0  0  0  0  0
   11.2087   -7.3094   -4.1102 H   0  0  0  0  0  0  0  0  0  0  0  0
   11.2582   -4.3474    2.0219 H   0  0  0  0  0  0  0  0  0  0  0  0
    8.4966   -6.6691   -1.1690 H   0  0  0  0  0  0  0  0  0  0  0  0
   11.4599   -4.5336   -3.4683 H   0  0  0  0  0  0  0  0  0  0  0  0
   11.9404   -4.5445    1.1984 C   0  0  0  0  0  0  0  0  0  0  0  0
   12.5876   -3.8460   -1.3773 H   0  0  0  0  0  0  0  0  0  0  0  0
    7.2626   -3.3223   -2.0841 S   0  0  0  0  0  0  0  0  0  0  0  0
    9.8124   -7.9589   -4.9767 H   0  0  0  0  0  0  0  0  0  0  0  0
    9.3546   -6.2233   -3.7818 C   0  0  0  0  0  0  0  0  0  0  0  0
    9.9745   -8.2253   -3.2375 H   0  0  0  0  0  0  0  0  0  0  0  0
   12.6007   -3.6901    1.0732 H   0  0  0  0  0  0  0  0  0  0  0  0
   10.0233   -1.4553   -1.7843 Cl  0  0  0  0  0  0  0  0  0  0  0  0
    7.3002   -5.6288   -3.4444 H   0  0  0  0  0  0  0  0  0  0  0  0
    4.6958   -2.1989   -1.6723 H   0  0  0  0  0  0  0  0  0  0  0  0
    6.5550   -2.5361   -0.7192 C   0  0  0  0  0  0  0  0  0  0  0  0
    5.2467   -2.0578   -0.7583 C   0  0  0  0  0  0  0  0  0  0  0  0
    5.1160   -0.7881    2.3586 H   0  0  0  0  0  0  0  0  0  0  0  0
    4.7143   -1.4290    0.3439 C   0  0  0  0  0  0  0  0  0  0  0  0
   12.5429   -5.4172    1.4511 H   0  0  0  0  0  0  0  0  0  0  0  0
    7.8539   -6.5085   -3.7696 C   0  0  0  0  0  0  0  0  0  0  0  0
    7.6164   -7.3399   -3.1126 H   0  0  0  0  0  0  0  0  0  0  0  0
    7.5279   -6.7659   -4.7731 H   0  0  0  0  0  0  0  0  0  0  0  0
    3.7053   -1.0535    0.3205 H   0  0  0  0  0  0  0  0  0  0  0  0
    7.6916   -1.6694    2.6836 C   0  0  0  0  0  0  0  0  0  0  0  0
    7.9196   -2.6652    3.0622 H   0  0  0  0  0  0  0  0  0  0  0  0
    7.2355   -1.0738    3.4656 H   0  0  0  0  0  0  0  0  0  0  0  0
    8.6378   -1.2233    2.3760 H   0  0  0  0  0  0  0  0  0  0  0  0
 30 32  2  0  0  0  0
 10 38  1  0  0  0  0
 10 12  2  0  0  0  0
  7 19  1  0  0  0  0
  8 29  1  0  0  0  0
 12 32  1  0  0  0  0
  8 10  1  0  0  0  0
 29 30  1  0  0  0  0
  8 14  1  0  0  0  0
  4 23  1  0  0  0  0
  2  7  4  0  0  0  0
  5  6  4  0  0  0  0
  3  4  4  0  0  0  0
 23 34  1  0  0  0  0
  2  3  4  0  0  0  0
 13 23  1  0  0  0  0
  4  5  4  0  0  0  0
  6  7  4  0  0  0  0
 28 30  1  0  0  0  0
 12 31  1  0  0  0  0
 32 37  1  0  0  0  0
  5 17  1  0  0  0  0
 38 40  1  0  0  0  0
  3 18  1  0  0  0  0
  2 20  1  0  0  0  0
  6 11  1  0  0  0  0
 34 35  1  0  0  0  0
 13 22  1  0  0  0  0
 34 36  1  0  0  0  0
 13 15  1  0  0  0  0
 13 24  1  0  0  0  0
 19 25  1  0  0  0  0
 16 19  1  0  0  0  0
 27 34  1  0  0  0  0
 38 39  1  0  0  0  0
 19 33  1  0  0  0  0
 38 41  1  0  0  0  0
  9 23  1  0  0  0  0
 21 29  2  0  0  0  0
  1  4  1  0  0  0  0
  1  5  1  0  0  0  0
  1  6  1  0  0  0  0
  1  7  1  0  0  0  0
  1 14  1  0  0  0  0
  1 21  1  0  0  0  0
  1 26  1  0  0  0  0
M  END
$$$$
