compound_120
  GFN2-xTB geometry (ORCA XTB2, DDCOSMO(water))

 78 85  0  0  0  0  0  0  0  0999 V2000
   -4.7705   -4.7089   -0.6632 C   0  0  0  0  0  0  0  0  0  0  0  0
   -5.6967   -5.6341   -0.2445 C   0  0  0  0  0  0  0  0  0  0  0  0
   -5.2696   -6.9473    0.1235 C   0  0  0  0  0  0  0  0  0  0  0  0
   -3.9399   -7.2759    0.0029 C   0  0  0  0  0  0  0  0  0  0  0  0
   -2.9918   -6.3402   -0.4422 C   0  0  0  0  0  0  0  0  0  0  0  0
   -3.4028   -5.0143   -0.7388 C   0  0  0  0  0  0  0  0  0  0  0  0
   -5.1226   -3.7343   -0.9552 H   0  0  0  0  0  0  0  0  0  0  0  0
  -12.3181   -0.4652    0.8738 H   0  0  0  0  0  0  0  0  0  0  0  0
   -3.5738   -8.2604    0.2388 H   0  0  0  0  0  0  0  0  0  0  0  0
  -11.5559   -0.8386    2.2889 H   0  0  0  0  0  0  0  0  0  0  0  0
   -6.2258   -7.7927    0.5772 O   0  0  0  0  0  0  0  0  0  0  0  0
   -5.8555   -9.1015    0.9644 C   0  0  0  0  0  0  0  0  0  0  0  0
   -5.4384   -9.6604    0.1236 H   0  0  0  0  0  0  0  0  0  0  0  0
   -6.7763   -9.5752    1.2972 H   0  0  0  0  0  0  0  0  0  0  0  0
   -5.1338   -9.0816    1.7841 H   0  0  0  0  0  0  0  0  0  0  0  0
   -6.9774   -5.1889   -0.1467 O   0  0  0  0  0  0  0  0  0  0  0  0
   -9.3047   -5.1123   -0.6112 C   0  0  0  0  0  0  0  0  0  0  0  0
   -9.8244   -4.7145    0.7691 C   0  0  0  0  0  0  0  0  0  0  0  0
   -9.0437   -4.2144   -1.1783 H   0  0  0  0  0  0  0  0  0  0  0  0
   -8.9979   -4.4250    1.4202 H   0  0  0  0  0  0  0  0  0  0  0  0
  -10.3272   -5.5784    1.2164 H   0  0  0  0  0  0  0  0  0  0  0  0
  -10.0827   -5.6418   -1.1612 H   0  0  0  0  0  0  0  0  0  0  0  0
  -10.7718   -3.6007    0.6628 N   0  0  0  0  0  0  0  0  0  0  0  0
  -11.3495   -3.7753   -0.1713 H   0  0  0  0  0  0  0  0  0  0  0  0
   -5.8598    1.5754    0.6006 Cl  0  0  0  0  0  0  0  0  0  0  0  0
  -11.6888   -3.5390    1.8106 C   0  0  0  0  0  0  0  0  0  0  0  0
  -12.6412   -2.3852    1.5383 C   0  0  0  0  0  0  0  0  0  0  0  0
  -11.7968   -1.1976    1.3603 N   0  0  0  0  0  0  0  0  0  0  0  0
  -12.2343   -4.4796    1.9266 H   0  0  0  0  0  0  0  0  0  0  0  0
  -11.0982   -3.3426    2.7108 H   0  0  0  0  0  0  0  0  0  0  0  0
  -13.3488   -2.2505    2.3602 H   0  0  0  0  0  0  0  0  0  0  0  0
  -13.1945   -2.5694    0.6111 H   0  0  0  0  0  0  0  0  0  0  0  0
   -1.7076   -6.7462   -0.6048 N   0  0  0  0  0  0  0  0  0  0  0  0
   -0.8848   -5.8679   -1.1064 C   0  0  0  0  0  0  0  0  0  0  0  0
   -1.1430   -4.5998   -1.4156 N   0  0  0  0  0  0  0  0  0  0  0  0
   -2.3708   -4.1407   -1.1902 C   0  0  0  0  0  0  0  0  0  0  0  0
   -7.1888   -3.0698    0.3561 H   0  0  0  0  0  0  0  0  0  0  0  0
    0.1324   -6.1966   -1.2838 H   0  0  0  0  0  0  0  0  0  0  0  0
   -7.9857   -2.2316    2.5542 H   0  0  0  0  0  0  0  0  0  0  0  0
   -2.5418   -2.8315   -1.5350 N   0  0  0  0  0  0  0  0  0  0  0  0
   -3.3570   -1.8458   -1.0091 C   0  0  0  0  0  0  0  0  0  0  0  0
   -3.9464   -1.9365    0.2531 C   0  0  0  0  0  0  0  0  0  0  0  0
   -4.7130   -0.8886    0.7201 C   0  0  0  0  0  0  0  0  0  0  0  0
   -4.9137    0.2625   -0.0286 C   0  0  0  0  0  0  0  0  0  0  0  0
   -4.3121    0.3602   -1.2750 C   0  0  0  0  0  0  0  0  0  0  0  0
   -3.5419   -0.6777   -1.7562 C   0  0  0  0  0  0  0  0  0  0  0  0
   -3.7958   -2.7961    0.8849 H   0  0  0  0  0  0  0  0  0  0  0  0
   -1.7820   -2.4912   -2.1127 H   0  0  0  0  0  0  0  0  0  0  0  0
   -5.2671   -0.9931    1.9468 F   0  0  0  0  0  0  0  0  0  0  0  0
   -4.4490    1.2547   -1.8606 H   0  0  0  0  0  0  0  0  0  0  0  0
   -3.0716   -0.5885   -2.7220 H   0  0  0  0  0  0  0  0  0  0  0  0
  -10.0016   -1.6452    0.3253 Ru  0  0  0  0  0  0  0  0  0  0  0  0
   -7.9163   -1.3826   -0.7596 C   0  0  0  0  0  0  0  0  0  0  0  0
   -8.5645   -0.1205   -0.6474 C   0  0  0  0  0  0  0  0  0  0  0  0
   -8.9553    0.3907    0.5905 C   0  0  0  0  0  0  0  0  0  0  0  0
   -8.7850   -0.3790    1.7760 C   0  0  0  0  0  0  0  0  0  0  0  0
   -8.1999   -1.6615    1.6581 C   0  0  0  0  0  0  0  0  0  0  0  0
   -7.7302   -2.1330    0.4068 C   0  0  0  0  0  0  0  0  0  0  0  0
   -8.6691    0.4937   -1.5367 H   0  0  0  0  0  0  0  0  0  0  0  0
   -9.3376    1.4016    0.6450 H   0  0  0  0  0  0  0  0  0  0  0  0
  -11.3582   -1.6883   -1.6912 Cl  0  0  0  0  0  0  0  0  0  0  0  0
   -7.1087   -2.8877   -2.0555 H   0  0  0  0  0  0  0  0  0  0  0  0
   -7.3550   -1.8295   -2.0750 C   0  0  0  0  0  0  0  0  0  0  0  0
   -8.2400   -6.8015    0.2284 H   0  0  0  0  0  0  0  0  0  0  0  0
   -8.0798   -6.0176   -0.5165 C   0  0  0  0  0  0  0  0  0  0  0  0
   -7.8719   -6.4883   -1.4834 H   0  0  0  0  0  0  0  0  0  0  0  0
   -6.4479   -1.2643   -2.2927 H   0  0  0  0  0  0  0  0  0  0  0  0
   -8.0636   -1.6477   -2.8833 H   0  0  0  0  0  0  0  0  0  0  0  0
   -9.0673    0.1707    3.1576 C   0  0  0  0  0  0  0  0  0  0  0  0
   -7.7246    0.4865    3.8325 C   0  0  0  0  0  0  0  0  0  0  0  0
   -9.9488    1.4197    3.1771 C   0  0  0  0  0  0  0  0  0  0  0  0
   -7.0871   -0.3912    3.8924 H   0  0  0  0  0  0  0  0  0  0  0  0
   -7.8944    0.8618    4.8383 H   0  0  0  0  0  0  0  0  0  0  0  0
   -7.1871    1.2507    3.2725 H   0  0  0  0  0  0  0  0  0  0  0  0
   -9.5528   -0.6162    3.7447 H   0  0  0  0  0  0  0  0  0  0  0  0
   -9.4072    2.2804    2.7872 H   0  0  0  0  0  0  0  0  0  0  0  0
  -10.2264    1.6489    4.2031 H   0  0  0  0  0  0  0  0  0  0  0  0
  -10.8574    1.2938    2.5962 H   0  0  0  0  0  0  0  0  0  0  0  0
  6 36  1  0  0  0  0
  3 11  1  0  0  0  0
  2 16  1  0  0  0  0
 43 49  1  0  0  0  0
 34 35  1  0  0  0  0
  1  2  4  0  0  0  0
  3  4  4  0  0  0  0
 45 46  4  0  0  0  0
 42 43  4  0  0  0  0
 44 45  4  0  0  0  0
 43 44  4  0  0  0  0
 53 63  1  0  0  0  0
  5 33  1  0  0  0  0
 54 55  4  0  0  0  0
 41 42  4  0  0  0  0
 41 46  4  0  0  0  0
 53 58  4  0  0  0  0
 36 40  1  0  0  0  0
 56 69  1  0  0  0  0
  1  6  4  0  0  0  0
  4  5  4  0  0  0  0
 25 44  1  0  0  0  0
 26 27  1  0  0  0  0
 11 12  1  0  0  0  0
 17 65  1  0  0  0  0
 56 57  4  0  0  0  0
 17 18  1  0  0  0  0
 69 71  1  0  0  0  0
 57 58  4  0  0  0  0
  5  6  4  0  0  0  0
 40 41  1  0  0  0  0
 69 70  1  0  0  0  0
 53 54  4  0  0  0  0
 55 56  4  0  0  0  0
 16 65  1  0  0  0  0
  2  3  4  0  0  0  0
  4  9  1  0  0  0  0
  1  7  1  0  0  0  0
 42 47  1  0  0  0  0
 45 50  1  0  0  0  0
 46 51  1  0  0  0  0
 55 60  1  0  0  0  0
 37 58  1  0  0  0  0
 39 57  1  0  0  0  0
 34 38  1  0  0  0  0
 40 48  1  0  0  0  0
 71 78  1  0  0  0  0
 54 59  1  0  0  0  0
 70 72  1  0  0  0  0
 62 63  1  0  0  0  0
 70 73  1  0  0  0  0
 71 77  1  0  0  0  0
 12 14  1  0  0  0  0
 71 76  1  0  0  0  0
 70 74  1  0  0  0  0
 17 22  1  0  0  0  0
 63 68  1  0  0  0  0
 63 67  1  0  0  0  0
 18 20  1  0  0  0  0
 12 15  1  0  0  0  0
 12 13  1  0  0  0  0
 27 31  1  0  0  0  0
 64 65  1  0  0  0  0
 26 29  1  0  0  0  0
 17 19  1  0  0  0  0
  8 28  1  0  0  0  0
 26 30  1  0  0  0  0
 18 21  1  0  0  0  0
 69 75  1  0  0  0  0
 27 32  1  0  0  0  0
 65 66  1  0  0  0  0
 10 28  1  0  0  0  0
 23 24  1  0  0  0  0
 18 23  1  0  0  0  0
 27 28  1  0  0  0  0
 23 26  1  0  0  0  0
 33 34  2  0  0  0  0
 35 36  2  0  0  0  0
 52 23  1  0  0  0  0
 52 28  1  0  0  0  0
 52 61  1  0  0  0  0
 52 53  1  0  0  0  0
 52 54  1  0  0  0  0
 52 55  1  0  0  0  0
 52 56  1  0  0  0  0
M  END
$$$$
