compound_130
  GFN2-xTB geometry (ORCA XTB2, DDCOSMO(water))

 74 86  0  0  0  0  0  0  0  0999 V2000
   19.7880   -2.4394    0.9390 Ru  0  0  0  0  0  0  0  0  0  0  0  0
   24.5581   -1.3445    0.6211 C   0  0  0  0  0  0  0  0  0  0  0  0
   24.1279   -2.6893    0.4222 C   0  0  0  0  0  0  0  0  0  0  0  0
   22.7564   -3.0272    0.5112 C   0  0  0  0  0  0  0  0  0  0  0  0
   21.8413   -2.1436    0.7946 N   0  0  0  0  0  0  0  0  0  0  0  0
   21.3002    1.3968    1.5573 C   0  0  0  0  0  0  0  0  0  0  0  0
   22.5849    1.8863    1.4068 C   0  0  0  0  0  0  0  0  0  0  0  0
   23.6834    1.0652    1.0609 C   0  0  0  0  0  0  0  0  0  0  0  0
   23.5473   -0.3455    0.8762 C   0  0  0  0  0  0  0  0  0  0  0  0
   22.2244   -0.8440    0.9815 C   0  0  0  0  0  0  0  0  0  0  0  0
   21.1578    0.0049    1.3095 C   0  0  0  0  0  0  0  0  0  0  0  0
   16.1908    2.0770    2.5193 H   0  0  0  0  0  0  0  0  0  0  0  0
   22.4466   -4.0554    0.3746 H   0  0  0  0  0  0  0  0  0  0  0  0
   17.6014    4.0738    2.6914 H   0  0  0  0  0  0  0  0  0  0  0  0
   17.1486   -0.1143    1.9240 H   0  0  0  0  0  0  0  0  0  0  0  0
   27.1241   -4.2061   -0.0789 H   0  0  0  0  0  0  0  0  0  0  0  0
   24.7050   -4.7111    0.0080 H   0  0  0  0  0  0  0  0  0  0  0  0
   19.8973   -0.4248    1.4261 N   0  0  0  0  0  0  0  0  0  0  0  0
   19.1461    0.6750    1.7733 C   0  0  0  0  0  0  0  0  0  0  0  0
   19.9720    1.8378    1.8662 C   0  0  0  0  0  0  0  0  0  0  0  0
   17.7799    0.7593    2.0086 C   0  0  0  0  0  0  0  0  0  0  0  0
   17.2511    1.9931    2.3366 C   0  0  0  0  0  0  0  0  0  0  0  0
   18.0539    3.1293    2.4325 C   0  0  0  0  0  0  0  0  0  0  0  0
   19.4135    3.0658    2.1984 C   0  0  0  0  0  0  0  0  0  0  0  0
   20.0409    3.9420    2.2659 H   0  0  0  0  0  0  0  0  0  0  0  0
   25.0653   -3.7065    0.1620 C   0  0  0  0  0  0  0  0  0  0  0  0
   26.4051   -3.4272    0.1189 C   0  0  0  0  0  0  0  0  0  0  0  0
   26.8383   -2.1190    0.3457 C   0  0  0  0  0  0  0  0  0  0  0  0
   25.9407   -1.1064    0.5899 C   0  0  0  0  0  0  0  0  0  0  0  0
   26.3133   -0.1131    0.7556 H   0  0  0  0  0  0  0  0  0  0  0  0
   27.8932   -1.8934    0.3310 H   0  0  0  0  0  0  0  0  0  0  0  0
   24.8280    1.9749    0.9125 C   0  0  0  0  0  0  0  0  0  0  0  0
   24.3734    3.2494    1.2396 N   0  0  0  0  0  0  0  0  0  0  0  0
   23.0381    3.2840    1.5340 C   0  0  0  0  0  0  0  0  0  0  0  0
   25.9759    1.7998    0.5512 O   0  0  0  0  0  0  0  0  0  0  0  0
   22.4068    4.2799    1.8232 O   0  0  0  0  0  0  0  0  0  0  0  0
   24.9748    4.0596    1.2098 H   0  0  0  0  0  0  0  0  0  0  0  0
   18.3967   -5.1321    0.6396 H   0  0  0  0  0  0  0  0  0  0  0  0
   19.3586   -2.5559   -1.2633 C   0  0  0  0  0  0  0  0  0  0  0  0
   19.8627   -2.1142   -2.1118 H   0  0  0  0  0  0  0  0  0  0  0  0
   19.5818   -3.8736   -0.7502 C   0  0  0  0  0  0  0  0  0  0  0  0
   18.2096   -2.0423   -0.6409 C   0  0  0  0  0  0  0  0  0  0  0  0
   19.9744   -3.2462    3.8092 O   0  0  0  0  0  0  0  0  0  0  0  0
   20.2903   -4.5867   -1.1483 H   0  0  0  0  0  0  0  0  0  0  0  0
   18.5680   -4.1616    0.1931 C   0  0  0  0  0  0  0  0  0  0  0  0
   17.7036   -3.0109    0.2837 C   0  0  0  0  0  0  0  0  0  0  0  0
   17.7068   -1.1115   -0.8708 H   0  0  0  0  0  0  0  0  0  0  0  0
   19.9467   -2.9299    2.7008 C   0  0  0  0  0  0  0  0  0  0  0  0
   16.3971   -2.8670    0.9639 C   0  0  0  0  0  0  0  0  0  0  0  0
   15.7449   -1.8201    0.8839 O   0  0  0  0  0  0  0  0  0  0  0  0
   15.9665   -3.9308    1.6602 N   0  0  0  0  0  0  0  0  0  0  0  0
   14.6850   -3.9625    2.3234 C   0  0  0  0  0  0  0  0  0  0  0  0
   13.5653   -4.4000    1.3645 C   0  0  0  0  0  0  0  0  0  0  0  0
   12.2892   -4.4503    2.0505 N   0  0  0  0  0  0  0  0  0  0  0  0
   12.0802   -5.7189    2.7284 C   0  0  0  0  0  0  0  0  0  0  0  0
   10.8442   -5.6454    3.6186 C   0  0  0  0  0  0  0  0  0  0  0  0
    9.6183   -5.3024    2.7803 C   0  0  0  0  0  0  0  0  0  0  0  0
    9.8888   -4.0086    2.0207 C   0  0  0  0  0  0  0  0  0  0  0  0
   11.1612   -4.1443    1.1894 C   0  0  0  0  0  0  0  0  0  0  0  0
   16.5014   -4.7840    1.6470 H   0  0  0  0  0  0  0  0  0  0  0  0
   14.4574   -2.9567    2.6842 H   0  0  0  0  0  0  0  0  0  0  0  0
   14.7519   -4.6398    3.1730 H   0  0  0  0  0  0  0  0  0  0  0  0
   13.8276   -5.3700    0.9088 H   0  0  0  0  0  0  0  0  0  0  0  0
   13.5106   -3.6576    0.5629 H   0  0  0  0  0  0  0  0  0  0  0  0
   12.9574   -5.9339    3.3394 H   0  0  0  0  0  0  0  0  0  0  0  0
   11.9580   -6.5411    1.9970 H   0  0  0  0  0  0  0  0  0  0  0  0
   10.9984   -4.8687    4.3682 H   0  0  0  0  0  0  0  0  0  0  0  0
   10.7062   -6.5993    4.1292 H   0  0  0  0  0  0  0  0  0  0  0  0
    8.7397   -5.1913    3.4169 H   0  0  0  0  0  0  0  0  0  0  0  0
    9.4225   -6.1091    2.0694 H   0  0  0  0  0  0  0  0  0  0  0  0
   10.0224   -3.1918    2.7310 H   0  0  0  0  0  0  0  0  0  0  0  0
    9.0526   -3.7639    1.3643 H   0  0  0  0  0  0  0  0  0  0  0  0
   11.3676   -3.2011    0.6768 H   0  0  0  0  0  0  0  0  0  0  0  0
   11.0151   -4.9281    0.4213 H   0  0  0  0  0  0  0  0  0  0  0  0
  2  3  1  0  0  0  0
  6 20  1  0  0  0  0
  2  9  1  0  0  0  0
  8 32  1  0  0  0  0
  4  5  2  0  0  0  0
  7 34  1  0  0  0  0
 26 27  1  0  0  0  0
 46 49  1  0  0  0  0
 11 18  1  0  0  0  0
 28 29  1  0  0  0  0
 49 51  1  0  0  0  0
 23 24  4  0  0  0  0
 21 22  4  0  0  0  0
  6  7  4  0  0  0  0
 19 21  4  0  0  0  0
 20 24  4  0  0  0  0
 22 23  4  0  0  0  0
 27 28  2  0  0  0  0
 10 11  4  0  0  0  0
  2 29  2  0  0  0  0
 39 42  4  0  0  0  0
  5 10  1  0  0  0  0
 33 34  1  0  0  0  0
  3 26  2  0  0  0  0
 56 57  1  0  0  0  0
 57 58  1  0  0  0  0
 55 56  1  0  0  0  0
 18 19  1  0  0  0  0
 58 59  1  0  0  0  0
  7  8  4  0  0  0  0
 41 45  4  0  0  0  0
  3  4  1  0  0  0  0
  9 10  4  0  0  0  0
  6 11  4  0  0  0  0
 52 53  1  0  0  0  0
  8  9  4  0  0  0  0
 19 20  4  0  0  0  0
 32 33  1  0  0  0  0
 42 46  4  0  0  0  0
 39 41  4  0  0  0  0
 29 30  1  0  0  0  0
 51 60  1  0  0  0  0
 17 26  1  0  0  0  0
 16 27  1  0  0  0  0
 14 23  1  0  0  0  0
 28 31  1  0  0  0  0
 12 22  1  0  0  0  0
 24 25  1  0  0  0  0
 33 37  1  0  0  0  0
 45 46  4  0  0  0  0
 41 44  1  0  0  0  0
 15 21  1  0  0  0  0
 39 40  1  0  0  0  0
 38 45  1  0  0  0  0
  4 13  1  0  0  0  0
 42 47  1  0  0  0  0
 52 62  1  0  0  0  0
 55 65  1  0  0  0  0
 56 67  1  0  0  0  0
 58 71  1  0  0  0  0
 57 69  1  0  0  0  0
 56 68  1  0  0  0  0
 58 72  1  0  0  0  0
 52 61  1  0  0  0  0
 57 70  1  0  0  0  0
 59 73  1  0  0  0  0
 53 64  1  0  0  0  0
 53 63  1  0  0  0  0
 59 74  1  0  0  0  0
 55 66  1  0  0  0  0
 51 52  1  0  0  0  0
 53 54  1  0  0  0  0
 54 59  1  0  0  0  0
 54 55  1  0  0  0  0
 43 48  2  0  0  0  0
 34 36  2  0  0  0  0
 32 35  2  0  0  0  0
 49 50  2  0  0  0  0
  1 41  1  0  0  0  0
  1 45  1  0  0  0  0
  1 18  1  0  0  0  0
  1 39  1  0  0  0  0
  1 42  1  0  0  0  0
  1 48  1  0  0  0  0
  1 46  1  0  0  0  0
  1  5  1  0  0  0  0
M  END
$$$$
