compound_61
  GFN2-xTB geometry (ORCA XTB2, DDCOSMO(water))

 65 71  0  0  0  0  0  0  0  0999 V2000
   -0.4936   -2.8337    1.2957 Ru  0  0  0  0  0  0  0  0  0  0  0  0
    2.0526   -2.8169   -0.1625 C   0  0  0  0  0  0  0  0  0  0  0  0
    3.2334   -3.3153   -0.7017 C   0  0  0  0  0  0  0  0  0  0  0  0
    3.6033   -4.6331   -0.4521 C   0  0  0  0  0  0  0  0  0  0  0  0
    2.7407   -5.4147    0.3342 C   0  0  0  0  0  0  0  0  0  0  0  0
    1.5931   -4.8502    0.8327 C   0  0  0  0  0  0  0  0  0  0  0  0
    1.2521   -3.5781    0.6166 N   0  0  0  0  0  0  0  0  0  0  0  0
    1.7309   -4.5130    3.8578 H   0  0  0  0  0  0  0  0  0  0  0  0
    6.5528   -5.2430   -7.2491 H   0  0  0  0  0  0  0  0  0  0  0  0
    2.9869   -6.4438    0.5308 H   0  0  0  0  0  0  0  0  0  0  0  0
    0.9056   -5.4410    1.4240 H   0  0  0  0  0  0  0  0  0  0  0  0
    1.5094   -1.4874   -0.3863 C   0  0  0  0  0  0  0  0  0  0  0  0
    2.1067   -0.4846   -1.1493 C   0  0  0  0  0  0  0  0  0  0  0  0
    1.4480    0.7132   -1.3368 C   0  0  0  0  0  0  0  0  0  0  0  0
    0.1913    0.9049   -0.7813 C   0  0  0  0  0  0  0  0  0  0  0  0
   -0.4012   -0.0915   -0.0216 C   0  0  0  0  0  0  0  0  0  0  0  0
    0.2465   -1.2967    0.2072 C   0  0  0  0  0  0  0  0  0  0  0  0
    3.0750   -0.6425   -1.5974 H   0  0  0  0  0  0  0  0  0  0  0  0
    1.9024    1.4951   -1.9255 H   0  0  0  0  0  0  0  0  0  0  0  0
   -0.3328    1.8354   -0.9429 H   0  0  0  0  0  0  0  0  0  0  0  0
   -1.3896    0.0775    0.3835 H   0  0  0  0  0  0  0  0  0  0  0  0
   -1.4666   -3.7313   -0.7756 Cl  0  0  0  0  0  0  0  0  0  0  0  0
   -0.9762   -1.4934    3.0038 C   0  0  0  0  0  0  0  0  0  0  0  0
   -2.2355   -1.9486    2.5426 C   0  0  0  0  0  0  0  0  0  0  0  0
   -2.4133   -3.3465    2.4399 C   0  0  0  0  0  0  0  0  0  0  0  0
   -1.4735   -4.2627    2.9719 C   0  0  0  0  0  0  0  0  0  0  0  0
   -0.2570   -3.8073    3.4856 C   0  0  0  0  0  0  0  0  0  0  0  0
    0.0225   -2.4103    3.4215 C   0  0  0  0  0  0  0  0  0  0  0  0
   -2.9349    0.0213    2.1729 H   0  0  0  0  0  0  0  0  0  0  0  0
   -0.8038   -0.4286    3.1235 H   0  0  0  0  0  0  0  0  0  0  0  0
   -3.3648   -3.7346    2.0876 H   0  0  0  0  0  0  0  0  0  0  0  0
    0.9373   -2.0339    3.8678 H   0  0  0  0  0  0  0  0  0  0  0  0
   -1.7269   -5.3148    3.0137 H   0  0  0  0  0  0  0  0  0  0  0  0
   -3.3655   -0.9799    2.2794 C   0  0  0  0  0  0  0  0  0  0  0  0
   -4.1315   -1.3121    0.9965 C   0  0  0  0  0  0  0  0  0  0  0  0
   -4.3075   -0.9714    3.4887 C   0  0  0  0  0  0  0  0  0  0  0  0
   -3.7667   -0.6899    4.3887 H   0  0  0  0  0  0  0  0  0  0  0  0
   -4.7422   -1.9572    3.6377 H   0  0  0  0  0  0  0  0  0  0  0  0
   -5.1114   -0.2592    3.3249 H   0  0  0  0  0  0  0  0  0  0  0  0
   -3.4402   -1.5214    0.1767 H   0  0  0  0  0  0  0  0  0  0  0  0
   -4.7629   -0.4761    0.7092 H   0  0  0  0  0  0  0  0  0  0  0  0
   -4.7661   -2.1851    1.1297 H   0  0  0  0  0  0  0  0  0  0  0  0
    0.7093   -4.7274    4.1645 C   0  0  0  0  0  0  0  0  0  0  0  0
    0.4815   -5.7685    3.9515 H   0  0  0  0  0  0  0  0  0  0  0  0
    0.6427   -4.5731    5.2417 H   0  0  0  0  0  0  0  0  0  0  0  0
    4.7135   -5.2296   -0.9020 O   0  0  0  0  0  0  0  0  0  0  0  0
    5.6207   -4.4940   -1.7207 C   0  0  0  0  0  0  0  0  0  0  0  0
    6.7781   -5.4270   -2.0593 C   0  0  0  0  0  0  0  0  0  0  0  0
    7.9249   -4.7130   -2.7754 C   0  0  0  0  0  0  0  0  0  0  0  0
    7.5587   -4.1034   -4.1300 C   0  0  0  0  0  0  0  0  0  0  0  0
    7.0945   -5.1336   -5.1580 C   0  0  0  0  0  0  0  0  0  0  0  0
    6.8864   -4.4997   -6.5289 C   0  0  0  0  0  0  0  0  0  0  0  0
    5.9874   -3.6190   -1.1715 H   0  0  0  0  0  0  0  0  0  0  0  0
    5.1040   -4.1633   -2.6275 H   0  0  0  0  0  0  0  0  0  0  0  0
    6.4043   -6.2523   -2.6650 H   0  0  0  0  0  0  0  0  0  0  0  0
    7.1520   -5.8491   -1.1247 H   0  0  0  0  0  0  0  0  0  0  0  0
    8.7319   -5.4331   -2.9228 H   0  0  0  0  0  0  0  0  0  0  0  0
    8.3030   -3.9192   -2.1279 H   0  0  0  0  0  0  0  0  0  0  0  0
    8.4440   -3.5972   -4.5225 H   0  0  0  0  0  0  0  0  0  0  0  0
    6.7836   -3.3465   -4.0021 H   0  0  0  0  0  0  0  0  0  0  0  0
    6.1571   -5.5873   -4.8334 H   0  0  0  0  0  0  0  0  0  0  0  0
    7.8412   -5.9269   -5.2357 H   0  0  0  0  0  0  0  0  0  0  0  0
    7.8132   -4.0614   -6.8928 H   0  0  0  0  0  0  0  0  0  0  0  0
    6.1356   -3.7141   -6.4757 H   0  0  0  0  0  0  0  0  0  0  0  0
    3.8346   -2.6684   -1.3152 H   0  0  0  0  0  0  0  0  0  0  0  0
  4 46  1  0  0  0  0
  2 12  1  0  0  0  0
  5  6  4  0  0  0  0
 13 14  4  0  0  0  0
 15 16  4  0  0  0  0
 16 17  4  0  0  0  0
 14 15  4  0  0  0  0
 27 43  1  0  0  0  0
  2  3  4  0  0  0  0
  3  4  4  0  0  0  0
 12 13  4  0  0  0  0
 26 27  4  0  0  0  0
  6  7  4  0  0  0  0
 24 34  1  0  0  0  0
  4  5  4  0  0  0  0
 12 17  4  0  0  0  0
 24 25  4  0  0  0  0
 51 52  1  0  0  0  0
 47 48  1  0  0  0  0
 50 51  1  0  0  0  0
  2  7  4  0  0  0  0
 25 26  4  0  0  0  0
 23 24  4  0  0  0  0
 48 49  1  0  0  0  0
 49 50  1  0  0  0  0
 23 28  4  0  0  0  0
 34 35  1  0  0  0  0
 34 36  1  0  0  0  0
 46 47  1  0  0  0  0
 27 28  4  0  0  0  0
  3 65  1  0  0  0  0
  5 10  1  0  0  0  0
 13 18  1  0  0  0  0
 14 19  1  0  0  0  0
 15 20  1  0  0  0  0
 16 21  1  0  0  0  0
  6 11  1  0  0  0  0
 26 33  1  0  0  0  0
 23 30  1  0  0  0  0
 28 32  1  0  0  0  0
 35 41  1  0  0  0  0
 25 31  1  0  0  0  0
 36 39  1  0  0  0  0
 43 44  1  0  0  0  0
 36 37  1  0  0  0  0
  9 52  1  0  0  0  0
 35 42  1  0  0  0  0
 36 38  1  0  0  0  0
 52 63  1  0  0  0  0
 52 64  1  0  0  0  0
  8 43  1  0  0  0  0
 48 55  1  0  0  0  0
 43 45  1  0  0  0  0
 50 60  1  0  0  0  0
 51 61  1  0  0  0  0
 48 56  1  0  0  0  0
 49 57  1  0  0  0  0
 49 58  1  0  0  0  0
 51 62  1  0  0  0  0
 35 40  1  0  0  0  0
 50 59  1  0  0  0  0
 47 54  1  0  0  0  0
 29 34  1  0  0  0  0
 47 53  1  0  0  0  0
  1  7  1  0  0  0  0
  1 22  1  0  0  0  0
  1 24  1  0  0  0  0
  1 27  1  0  0  0  0
  1 26  1  0  0  0  0
  1 17  1  0  0  0  0
  1 23  1  0  0  0  0
M  END
$$$$
