compound_128
  GFN2-xTB geometry (ORCA XTB2, DDCOSMO(water))

 67 76  0  0  0  0  0  0  0  0999 V2000
   -4.0560   -5.0212   -0.3382 C   0  0  0  0  0  0  0  0  0  0  0  0
   -4.6995   -5.7214    0.6469 C   0  0  0  0  0  0  0  0  0  0  0  0
   -4.1419   -6.9463    1.1393 C   0  0  0  0  0  0  0  0  0  0  0  0
   -3.0038   -7.4534    0.5677 C   0  0  0  0  0  0  0  0  0  0  0  0
   -2.3565   -6.7634   -0.4750 C   0  0  0  0  0  0  0  0  0  0  0  0
   -2.8498   -5.5015   -0.8881 C   0  0  0  0  0  0  0  0  0  0  0  0
   -4.4664   -4.1029   -0.7216 H   0  0  0  0  0  0  0  0  0  0  0  0
  -10.0279    0.0122    0.6101 H   0  0  0  0  0  0  0  0  0  0  0  0
   -2.5805   -8.3957    0.8694 H   0  0  0  0  0  0  0  0  0  0  0  0
  -10.6219   -0.5097    2.0570 H   0  0  0  0  0  0  0  0  0  0  0  0
   -4.8426   -7.5154    2.1435 O   0  0  0  0  0  0  0  0  0  0  0  0
   -4.3920   -8.7475    2.6729 C   0  0  0  0  0  0  0  0  0  0  0  0
   -4.3917   -9.5286    1.9092 H   0  0  0  0  0  0  0  0  0  0  0  0
   -5.1010   -9.0009    3.4575 H   0  0  0  0  0  0  0  0  0  0  0  0
   -3.3893   -8.6529    3.0963 H   0  0  0  0  0  0  0  0  0  0  0  0
   -5.8669   -5.3591    1.2310 O   0  0  0  0  0  0  0  0  0  0  0  0
   -6.5936   -4.2701    0.6867 C   0  0  0  0  0  0  0  0  0  0  0  0
   -7.9976   -4.3077    1.2924 C   0  0  0  0  0  0  0  0  0  0  0  0
   -6.0950   -3.3155    0.9239 H   0  0  0  0  0  0  0  0  0  0  0  0
   -7.9281   -4.4257    2.3753 H   0  0  0  0  0  0  0  0  0  0  0  0
   -8.5218   -5.1806    0.8886 H   0  0  0  0  0  0  0  0  0  0  0  0
   -6.6528   -4.3605   -0.4046 H   0  0  0  0  0  0  0  0  0  0  0  0
   -8.7191   -3.0835    0.9559 N   0  0  0  0  0  0  0  0  0  0  0  0
   -8.5576   -2.9029   -0.0459 H   0  0  0  0  0  0  0  0  0  0  0  0
   -3.9781    0.6141    0.3581 H   0  0  0  0  0  0  0  0  0  0  0  0
  -10.1728   -3.1948    1.1432 C   0  0  0  0  0  0  0  0  0  0  0  0
  -10.7595   -1.9120    0.5704 C   0  0  0  0  0  0  0  0  0  0  0  0
  -10.0757   -0.7929    1.2387 N   0  0  0  0  0  0  0  0  0  0  0  0
  -10.5703   -4.0725    0.6262 H   0  0  0  0  0  0  0  0  0  0  0  0
  -10.3794   -3.2752    2.2148 H   0  0  0  0  0  0  0  0  0  0  0  0
  -11.8386   -1.8675    0.7305 H   0  0  0  0  0  0  0  0  0  0  0  0
  -10.5524   -1.8652   -0.5030 H   0  0  0  0  0  0  0  0  0  0  0  0
   -1.2893   -7.3451   -1.0787 N   0  0  0  0  0  0  0  0  0  0  0  0
   -0.7741   -6.6979   -2.0874 C   0  0  0  0  0  0  0  0  0  0  0  0
   -1.0963   -5.4825   -2.5218 N   0  0  0  0  0  0  0  0  0  0  0  0
   -2.0803   -4.8437   -1.8927 C   0  0  0  0  0  0  0  0  0  0  0  0
   -5.8740   -2.8836    3.5374 H   0  0  0  0  0  0  0  0  0  0  0  0
    0.0335   -7.1862   -2.6199 H   0  0  0  0  0  0  0  0  0  0  0  0
   -8.2142   -3.0598    4.4068 H   0  0  0  0  0  0  0  0  0  0  0  0
   -2.3219   -3.5796   -2.3356 N   0  0  0  0  0  0  0  0  0  0  0  0
   -2.7619   -2.4753   -1.6046 C   0  0  0  0  0  0  0  0  0  0  0  0
   -2.6264   -2.4278   -0.2177 C   0  0  0  0  0  0  0  0  0  0  0  0
   -3.0809   -1.3235    0.4858 C   0  0  0  0  0  0  0  0  0  0  0  0
   -3.6393   -0.2440   -0.2013 C   0  0  0  0  0  0  0  0  0  0  0  0
   -3.7329   -0.2815   -1.5778 C   0  0  0  0  0  0  0  0  0  0  0  0
   -3.3031   -1.3896   -2.2861 C   0  0  0  0  0  0  0  0  0  0  0  0
   -2.1567   -3.2538    0.2892 H   0  0  0  0  0  0  0  0  0  0  0  0
   -1.8566   -3.3666   -3.2087 H   0  0  0  0  0  0  0  0  0  0  0  0
   -5.0543   -0.7168    2.6354 H   0  0  0  0  0  0  0  0  0  0  0  0
   -4.1548    0.5607   -2.1049 H   0  0  0  0  0  0  0  0  0  0  0  0
   -3.3836   -1.4173   -3.3607 H   0  0  0  0  0  0  0  0  0  0  0  0
   -8.1342   -1.2927    1.8981 Ru  0  0  0  0  0  0  0  0  0  0  0  0
   -6.0739   -0.8132    2.9894 C   0  0  0  0  0  0  0  0  0  0  0  0
   -6.9022    0.3412    3.0318 C   0  0  0  0  0  0  0  0  0  0  0  0
   -8.1770    0.2715    3.5933 C   0  0  0  0  0  0  0  0  0  0  0  0
   -8.6807   -0.9803    4.0448 C   0  0  0  0  0  0  0  0  0  0  0  0
   -7.8686   -2.1273    3.9758 C   0  0  0  0  0  0  0  0  0  0  0  0
   -6.5368   -2.0285    3.4882 C   0  0  0  0  0  0  0  0  0  0  0  0
   -6.4985    1.2925    2.7043 H   0  0  0  0  0  0  0  0  0  0  0  0
   -8.7645    1.1738    3.7163 H   0  0  0  0  0  0  0  0  0  0  0  0
   -7.3442   -0.6687   -0.2982 Cl  0  0  0  0  0  0  0  0  0  0  0  0
   -9.6497   -1.0293    4.5286 H   0  0  0  0  0  0  0  0  0  0  0  0
   -3.0312   -1.2096    1.8438 O   0  0  0  0  0  0  0  0  0  0  0  0
   -2.4762   -2.2722    2.5976 C   0  0  0  0  0  0  0  0  0  0  0  0
   -2.5712   -1.9686    3.6380 H   0  0  0  0  0  0  0  0  0  0  0  0
   -1.4207   -2.4196    2.3577 H   0  0  0  0  0  0  0  0  0  0  0  0
   -3.0226   -3.2042    2.4291 H   0  0  0  0  0  0  0  0  0  0  0  0
  6 36  1  0  0  0  0
  3 11  1  0  0  0  0
  2 16  1  0  0  0  0
 43 63  1  0  0  0  0
 33 34  2  0  0  0  0
  1  2  4  0  0  0  0
  3  4  4  0  0  0  0
 44 45  4  0  0  0  0
 45 46  4  0  0  0  0
 42 43  4  0  0  0  0
 41 46  4  0  0  0  0
 53 58  4  0  0  0  0
 34 35  1  0  0  0  0
  5 33  1  0  0  0  0
 41 42  4  0  0  0  0
 35 36  2  0  0  0  0
 54 55  4  0  0  0  0
 43 44  4  0  0  0  0
 36 40  1  0  0  0  0
 56 57  4  0  0  0  0
  4  5  4  0  0  0  0
  1  6  4  0  0  0  0
 26 27  1  0  0  0  0
 11 12  1  0  0  0  0
 63 64  1  0  0  0  0
 16 17  1  0  0  0  0
  5  6  4  0  0  0  0
 17 18  1  0  0  0  0
 53 54  4  0  0  0  0
 57 58  4  0  0  0  0
 55 56  4  0  0  0  0
  2  3  4  0  0  0  0
 40 41  1  0  0  0  0
  4  9  1  0  0  0  0
  1  7  1  0  0  0  0
 42 47  1  0  0  0  0
 46 51  1  0  0  0  0
 25 44  1  0  0  0  0
 45 50  1  0  0  0  0
 40 48  1  0  0  0  0
 37 58  1  0  0  0  0
 49 53  1  0  0  0  0
 34 38  1  0  0  0  0
 55 60  1  0  0  0  0
 39 57  1  0  0  0  0
 54 59  1  0  0  0  0
 56 62  1  0  0  0  0
 12 14  1  0  0  0  0
 64 65  1  0  0  0  0
 18 20  1  0  0  0  0
 27 31  1  0  0  0  0
 64 66  1  0  0  0  0
 12 13  1  0  0  0  0
 12 15  1  0  0  0  0
 64 67  1  0  0  0  0
 26 29  1  0  0  0  0
  8 28  1  0  0  0  0
 27 32  1  0  0  0  0
 26 30  1  0  0  0  0
 18 21  1  0  0  0  0
 10 28  1  0  0  0  0
 17 22  1  0  0  0  0
 17 19  1  0  0  0  0
 23 24  1  0  0  0  0
 18 23  1  0  0  0  0
 23 26  1  0  0  0  0
 27 28  1  0  0  0  0
 52 23  1  0  0  0  0
 52 28  1  0  0  0  0
 52 54  1  0  0  0  0
 52 61  1  0  0  0  0
 52 55  1  0  0  0  0
 52 56  1  0  0  0  0
 52 57  1  0  0  0  0
 52 53  1  0  0  0  0
 52 58  1  0  0  0  0
M  END
$$$$
