compound_110
  GFN2-xTB geometry (ORCA XTB2, DDCOSMO(water))

 44 50  0  0  0  0  0  0  0  0999 V2000
    9.3425   -3.9517   -1.6119 Ru  0  0  0  0  0  0  0  0  0  0  0  0
   11.6528   -4.3258   -1.4711 C   0  0  0  0  0  0  0  0  0  0  0  0
   11.1579   -4.9641   -2.6326 C   0  0  0  0  0  0  0  0  0  0  0  0
   10.1205   -5.9173   -2.5701 C   0  0  0  0  0  0  0  0  0  0  0  0
    9.5296   -6.1558   -1.3002 C   0  0  0  0  0  0  0  0  0  0  0  0
   10.0161   -5.5206   -0.1332 C   0  0  0  0  0  0  0  0  0  0  0  0
   11.1130   -4.6209   -0.2025 C   0  0  0  0  0  0  0  0  0  0  0  0
    7.6018   -2.0457   -0.0565 N   0  0  0  0  0  0  0  0  0  0  0  0
   10.3122   -6.3513   -4.6365 H   0  0  0  0  0  0  0  0  0  0  0  0
    7.3621   -0.9686    0.7688 C   0  0  0  0  0  0  0  0  0  0  0  0
    9.6163   -5.8002    0.8353 H   0  0  0  0  0  0  0  0  0  0  0  0
    6.0298   -0.6455    1.1160 C   0  0  0  0  0  0  0  0  0  0  0  0
    9.8607   -8.1818   -3.6025 C   0  0  0  0  0  0  0  0  0  0  0  0
    8.8833   -2.3341   -0.3152 O   0  0  0  0  0  0  0  0  0  0  0  0
   10.8870   -8.4072   -3.3246 H   0  0  0  0  0  0  0  0  0  0  0  0
   12.2523   -3.1393    0.8396 H   0  0  0  0  0  0  0  0  0  0  0  0
    8.7436   -6.8978   -1.2065 H   0  0  0  0  0  0  0  0  0  0  0  0
   11.6381   -4.7657   -3.5863 H   0  0  0  0  0  0  0  0  0  0  0  0
   11.7163   -4.0623    1.0443 C   0  0  0  0  0  0  0  0  0  0  0  0
   12.5071   -3.6636   -1.5513 H   0  0  0  0  0  0  0  0  0  0  0  0
    6.9640   -4.1053   -1.5988 S   0  0  0  0  0  0  0  0  0  0  0  0
    9.6289   -8.6978   -4.5295 H   0  0  0  0  0  0  0  0  0  0  0  0
    9.6813   -6.6745   -3.8015 C   0  0  0  0  0  0  0  0  0  0  0  0
    9.1961   -8.5516   -2.8277 H   0  0  0  0  0  0  0  0  0  0  0  0
   12.4194   -4.7912    1.4481 H   0  0  0  0  0  0  0  0  0  0  0  0
    9.1955   -2.2910   -3.3782 Cl  0  0  0  0  0  0  0  0  0  0  0  0
    8.1125   -5.2514   -4.2603 H   0  0  0  0  0  0  0  0  0  0  0  0
    4.5111   -3.1252   -0.6456 H   0  0  0  0  0  0  0  0  0  0  0  0
    6.6051   -2.7867   -0.5559 C   0  0  0  0  0  0  0  0  0  0  0  0
    5.2674   -2.4875   -0.2202 C   0  0  0  0  0  0  0  0  0  0  0  0
    3.9599   -1.2057    0.8577 H   0  0  0  0  0  0  0  0  0  0  0  0
    4.9788   -1.4410    0.5975 C   0  0  0  0  0  0  0  0  0  0  0  0
   10.9524   -3.8730    1.7945 H   0  0  0  0  0  0  0  0  0  0  0  0
    8.2294   -6.3334   -4.1500 C   0  0  0  0  0  0  0  0  0  0  0  0
    7.5483   -6.6665   -3.3704 H   0  0  0  0  0  0  0  0  0  0  0  0
    7.9467   -6.8042   -5.0865 H   0  0  0  0  0  0  0  0  0  0  0  0
    8.4265   -0.2049    1.2638 C   0  0  0  0  0  0  0  0  0  0  0  0
    8.1730    0.8613    2.0911 C   0  0  0  0  0  0  0  0  0  0  0  0
    6.8606    1.1904    2.4454 C   0  0  0  0  0  0  0  0  0  0  0  0
    5.8092    0.4523    1.9663 C   0  0  0  0  0  0  0  0  0  0  0  0
    4.7933    0.6973    2.2313 H   0  0  0  0  0  0  0  0  0  0  0  0
    9.4305   -0.4729    0.9735 H   0  0  0  0  0  0  0  0  0  0  0  0
    8.9953    1.4476    2.4684 H   0  0  0  0  0  0  0  0  0  0  0  0
    6.6829    2.0306    3.0971 H   0  0  0  0  0  0  0  0  0  0  0  0
 12 32  1  0  0  0  0
 30 32  2  0  0  0  0
 39 40  4  0  0  0  0
 37 38  4  0  0  0  0
  8 29  1  0  0  0  0
  7 19  1  0  0  0  0
 38 39  4  0  0  0  0
  4 23  1  0  0  0  0
 10 37  4  0  0  0  0
  8 14  1  0  0  0  0
 12 40  4  0  0  0  0
  2  7  4  0  0  0  0
  3  4  4  0  0  0  0
 29 30  1  0  0  0  0
 10 12  4  0  0  0  0
  2  3  4  0  0  0  0
  5  6  4  0  0  0  0
  8 10  1  0  0  0  0
 13 23  1  0  0  0  0
 23 34  1  0  0  0  0
  6  7  4  0  0  0  0
  4  5  4  0  0  0  0
 28 30  1  0  0  0  0
 31 32  1  0  0  0  0
 39 44  1  0  0  0  0
 40 41  1  0  0  0  0
 38 43  1  0  0  0  0
 37 42  1  0  0  0  0
  2 20  1  0  0  0  0
  6 11  1  0  0  0  0
  5 17  1  0  0  0  0
 13 24  1  0  0  0  0
 34 36  1  0  0  0  0
 13 22  1  0  0  0  0
  3 18  1  0  0  0  0
 16 19  1  0  0  0  0
 13 15  1  0  0  0  0
 19 33  1  0  0  0  0
 34 35  1  0  0  0  0
 19 25  1  0  0  0  0
 27 34  1  0  0  0  0
  9 23  1  0  0  0  0
 21 29  2  0  0  0  0
  1  4  1  0  0  0  0
  1  5  1  0  0  0  0
  1  6  1  0  0  0  0
  1  7  1  0  0  0  0
  1 21  1  0  0  0  0
  1 14  1  0  0  0  0
  1 26  1  0  0  0  0
M  END
$$$$
