compound_83
  GFN2-xTB geometry (ORCA XTB2, DDCOSMO(water))

 45 53  0  0  0  0  0  0  0  0999 V2000
   -1.1036   -1.0478    0.7930 Ru  0  0  0  0  0  0  0  0  0  0  0  0
   -0.6104   -0.3558   -1.3522 C   0  0  0  0  0  0  0  0  0  0  0  0
   -1.6731    0.4407   -0.8727 C   0  0  0  0  0  0  0  0  0  0  0  0
   -1.5580    1.1858    0.3197 C   0  0  0  0  0  0  0  0  0  0  0  0
   -0.3550    1.0605    1.0561 C   0  0  0  0  0  0  0  0  0  0  0  0
    0.7171    0.2679    0.5846 C   0  0  0  0  0  0  0  0  0  0  0  0
    0.6146   -0.4257   -0.6487 C   0  0  0  0  0  0  0  0  0  0  0  0
   -2.5731    0.5352   -1.4728 H   0  0  0  0  0  0  0  0  0  0  0  0
   -1.8190   -2.6164    5.1219 H   0  0  0  0  0  0  0  0  0  0  0  0
   -0.2198    1.6424    1.9611 H   0  0  0  0  0  0  0  0  0  0  0  0
   -2.1737    3.5200    0.9946 C   0  0  0  0  0  0  0  0  0  0  0  0
   -3.2139   -2.1757    0.6613 Cl  0  0  0  0  0  0  0  0  0  0  0  0
   -2.3548   -1.1921    3.0833 H   0  0  0  0  0  0  0  0  0  0  0  0
    0.2036   -5.9897    1.8541 C   0  0  0  0  0  0  0  0  0  0  0  0
   -0.3058   -4.8579    2.4855 C   0  0  0  0  0  0  0  0  0  0  0  0
   -0.6577   -5.3302    3.8058 C   0  0  0  0  0  0  0  0  0  0  0  0
   -0.3754   -6.6138    3.9343 N   0  0  0  0  0  0  0  0  0  0  0  0
    0.1410   -6.9771    2.7371 N   0  0  0  0  0  0  0  0  0  0  0  0
   -1.1934   -4.5050    4.7358 N   0  0  0  0  0  0  0  0  0  0  0  0
   -1.3904   -3.2888    4.3924 C   0  0  0  0  0  0  0  0  0  0  0  0
   -2.6752    2.0876    0.7883 C   0  0  0  0  0  0  0  0  0  0  0  0
   -1.0971   -2.7554    3.1669 N   0  0  0  0  0  0  0  0  0  0  0  0
   -0.5554   -3.5106    2.1475 C   0  0  0  0  0  0  0  0  0  0  0  0
   -3.4499    2.1015    0.0140 H   0  0  0  0  0  0  0  0  0  0  0  0
   -0.3102   -2.8898    1.0298 N   0  0  0  0  0  0  0  0  0  0  0  0
   -0.7892   -0.7959    3.4767 H   0  0  0  0  0  0  0  0  0  0  0  0
    0.5578   -8.3339    2.5310 C   0  0  0  0  0  0  0  0  0  0  0  0
   -2.5646    1.5398    2.8827 H   0  0  0  0  0  0  0  0  0  0  0  0
   -0.2839   -9.0075    2.6910 H   0  0  0  0  0  0  0  0  0  0  0  0
    1.3436   -8.5912    3.2412 H   0  0  0  0  0  0  0  0  0  0  0  0
   -1.3672   -1.4026    2.8715 N   0  0  0  0  0  0  0  0  0  0  0  0
    0.9272   -8.4340    1.5139 H   0  0  0  0  0  0  0  0  0  0  0  0
    0.1021   -3.4627    0.2977 H   0  0  0  0  0  0  0  0  0  0  0  0
   -1.6789    3.8876    0.0986 H   0  0  0  0  0  0  0  0  0  0  0  0
   -1.4801    3.5814    1.8275 H   0  0  0  0  0  0  0  0  0  0  0  0
   -3.0160    4.1730    1.2085 H   0  0  0  0  0  0  0  0  0  0  0  0
   -3.2908    1.5282    2.0755 C   0  0  0  0  0  0  0  0  0  0  0  0
   -3.6426    0.5100    1.9036 H   0  0  0  0  0  0  0  0  0  0  0  0
   -4.1429    2.1350    2.3711 H   0  0  0  0  0  0  0  0  0  0  0  0
   -0.7025   -0.8403   -2.3181 H   0  0  0  0  0  0  0  0  0  0  0  0
    1.7843   -1.1674   -1.2011 C   0  0  0  0  0  0  0  0  0  0  0  0
    2.4337   -0.4610   -1.7202 H   0  0  0  0  0  0  0  0  0  0  0  0
    1.4749   -1.9262   -1.9151 H   0  0  0  0  0  0  0  0  0  0  0  0
    2.3648   -1.6312   -0.4074 H   0  0  0  0  0  0  0  0  0  0  0  0
    1.6636    0.2695    1.1136 H   0  0  0  0  0  0  0  0  0  0  0  0
 15 16  1  0  0  0  0
 14 18  1  0  0  0  0
 23 25  2  0  0  0  0
 17 18  1  0  0  0  0
  7 41  1  0  0  0  0
 16 19  1  0  0  0  0
 14 15  2  0  0  0  0
  4 21  1  0  0  0  0
 20 22  1  0  0  0  0
  3  4  4  0  0  0  0
 15 23  1  0  0  0  0
  2  3  4  0  0  0  0
  5  6  4  0  0  0  0
  2  7  4  0  0  0  0
  4  5  4  0  0  0  0
 22 23  1  0  0  0  0
  6  7  4  0  0  0  0
 11 21  1  0  0  0  0
 21 37  1  0  0  0  0
 22 31  1  0  0  0  0
  9 20  1  0  0  0  0
  6 45  1  0  0  0  0
  5 10  1  0  0  0  0
  2 40  1  0  0  0  0
 11 35  1  0  0  0  0
  3  8  1  0  0  0  0
 28 37  1  0  0  0  0
 27 32  1  0  0  0  0
 41 43  1  0  0  0  0
 37 39  1  0  0  0  0
 11 36  1  0  0  0  0
 41 44  1  0  0  0  0
 11 34  1  0  0  0  0
 25 33  1  0  0  0  0
 27 29  1  0  0  0  0
 27 30  1  0  0  0  0
 37 38  1  0  0  0  0
 41 42  1  0  0  0  0
 21 24  1  0  0  0  0
 13 31  1  0  0  0  0
 18 27  1  0  0  0  0
 26 31  1  0  0  0  0
 19 20  2  0  0  0  0
 16 17  2  0  0  0  0
  1  2  1  0  0  0  0
  1  3  1  0  0  0  0
  1  4  1  0  0  0  0
  1  5  1  0  0  0  0
  1  6  1  0  0  0  0
  1  7  1  0  0  0  0
  1 12  1  0  0  0  0
  1 25  1  0  0  0  0
  1 31  1  0  0  0  0
M  END
$$$$
