compound_9
  GFN2-xTB geometry (ORCA XTB2, DDCOSMO(water))

 50 57  0  0  0  0  0  0  0  0999 V2000
   -1.3231   -0.4288   -2.4880 C   0  0  0  0  0  0  0  0  0  0  0  0
   -1.3981   -0.5160   -1.0743 C   0  0  0  0  0  0  0  0  0  0  0  0
   -0.2783   -1.0806   -0.4109 C   0  0  0  0  0  0  0  0  0  0  0  0
    0.8274   -1.5088   -1.1699 C   0  0  0  0  0  0  0  0  0  0  0  0
    0.8948   -1.4199   -2.5944 C   0  0  0  0  0  0  0  0  0  0  0  0
   -0.2130   -0.8691   -3.2235 C   0  0  0  0  0  0  0  0  0  0  0  0
    4.4483   -3.2674   -0.6999 H   0  0  0  0  0  0  0  0  0  0  0  0
    5.6438   -3.6274   -2.8349 H   0  0  0  0  0  0  0  0  0  0  0  0
   -1.1344   -0.9863    2.7314 H   0  0  0  0  0  0  0  0  0  0  0  0
    4.6467   -2.9644   -4.9688 H   0  0  0  0  0  0  0  0  0  0  0  0
   -2.4679   -0.1059   -0.2608 C   0  0  0  0  0  0  0  0  0  0  0  0
   -2.3633   -0.2733    1.1013 C   0  0  0  0  0  0  0  0  0  0  0  0
   -1.2174   -0.8505    1.6604 C   0  0  0  0  0  0  0  0  0  0  0  0
   -0.1962   -1.2515    0.9267 N   0  0  0  0  0  0  0  0  0  0  0  0
   -3.3449    0.3293   -0.7142 H   0  0  0  0  0  0  0  0  0  0  0  0
   -3.1620    0.0332    1.7560 H   0  0  0  0  0  0  0  0  0  0  0  0
    2.1703   -1.9847   -2.9187 C   0  0  0  0  0  0  0  0  0  0  0  0
    2.7561   -2.3688   -1.6731 C   0  0  0  0  0  0  0  0  0  0  0  0
    1.9170   -2.0564   -0.6274 N   0  0  0  0  0  0  0  0  0  0  0  0
    2.4050   -1.9090   -5.0491 H   0  0  0  0  0  0  0  0  0  0  0  0
    4.0118   -2.9635   -1.6383 C   0  0  0  0  0  0  0  0  0  0  0  0
    4.6688   -3.1656   -2.8363 C   0  0  0  0  0  0  0  0  0  0  0  0
    4.1015   -2.7886   -4.0544 C   0  0  0  0  0  0  0  0  0  0  0  0
    2.8537   -2.1995   -4.1103 C   0  0  0  0  0  0  0  0  0  0  0  0
   -0.5002   -0.6359   -4.6562 C   0  0  0  0  0  0  0  0  0  0  0  0
   -1.7528   -0.0723   -4.6907 N   0  0  0  0  0  0  0  0  0  0  0  0
   -2.3149    0.0784   -3.4216 C   0  0  0  0  0  0  0  0  0  0  0  0
   -3.4208    0.5488   -3.2258 O   0  0  0  0  0  0  0  0  0  0  0  0
    0.1860   -0.8711   -5.6296 O   0  0  0  0  0  0  0  0  0  0  0  0
    0.2519   -4.7905    1.5717 O   0  0  0  0  0  0  0  0  0  0  0  0
    1.6466   -2.1592    1.4120 Ru  0  0  0  0  0  0  0  0  0  0  0  0
    0.8410   -3.8106    1.4229 C   0  0  0  0  0  0  0  0  0  0  0  0
   -2.2262    0.1915   -5.5420 H   0  0  0  0  0  0  0  0  0  0  0  0
    3.5265   -2.7515    1.8263 N   0  0  0  0  0  0  0  0  0  0  0  0
    3.8929   -3.9612    2.2541 C   0  0  0  0  0  0  0  0  0  0  0  0
    5.1814   -4.2505    2.6654 C   0  0  0  0  0  0  0  0  0  0  0  0
    6.1376   -3.2465    2.6396 C   0  0  0  0  0  0  0  0  0  0  0  0
    5.7590   -1.9912    2.1964 C   0  0  0  0  0  0  0  0  0  0  0  0
    4.4487   -1.7760    1.7951 C   0  0  0  0  0  0  0  0  0  0  0  0
    7.1491   -3.4389    2.9574 H   0  0  0  0  0  0  0  0  0  0  0  0
    2.5572   -0.2789    1.5717 N   0  0  0  0  0  0  0  0  0  0  0  0
    5.4215   -5.2462    2.9978 H   0  0  0  0  0  0  0  0  0  0  0  0
    6.4666   -1.1796    2.1555 H   0  0  0  0  0  0  0  0  0  0  0  0
    3.1256   -4.7255    2.2607 H   0  0  0  0  0  0  0  0  0  0  0  0
    1.2724   -2.0001    3.8213 Cl  0  0  0  0  0  0  0  0  0  0  0  0
    2.1755    0.4834    1.0083 H   0  0  0  0  0  0  0  0  0  0  0  0
    2.4570   -0.0034    2.5560 H   0  0  0  0  0  0  0  0  0  0  0  0
    3.9823   -0.4513    1.2593 C   0  0  0  0  0  0  0  0  0  0  0  0
    4.1001   -0.4660    0.1682 H   0  0  0  0  0  0  0  0  0  0  0  0
    4.5940    0.3604    1.6679 H   0  0  0  0  0  0  0  0  0  0  0  0
  2  3  1  0  0  0  0
  5 17  1  0  0  0  0
  1 27  1  0  0  0  0
  4 19  1  0  0  0  0
  6 25  1  0  0  0  0
 11 12  4  0  0  0  0
 23 24  4  0  0  0  0
 21 22  4  0  0  0  0
 13 14  4  0  0  0  0
 35 36  4  0  0  0  0
 37 38  4  0  0  0  0
 36 37  4  0  0  0  0
 38 39  4  0  0  0  0
  5  6  4  0  0  0  0
 18 21  4  0  0  0  0
 17 24  4  0  0  0  0
 39 48  1  0  0  0  0
 22 23  4  0  0  0  0
 34 35  4  0  0  0  0
 12 13  4  0  0  0  0
  1  6  4  0  0  0  0
  2 11  4  0  0  0  0
 34 39  4  0  0  0  0
  3  4  4  0  0  0  0
 25 26  1  0  0  0  0
 18 19  1  0  0  0  0
  3 14  4  0  0  0  0
  1  2  4  0  0  0  0
  4  5  4  0  0  0  0
 17 18  4  0  0  0  0
 26 27  1  0  0  0  0
 36 42  1  0  0  0  0
 12 16  1  0  0  0  0
 38 43  1  0  0  0  0
 37 40  1  0  0  0  0
  7 21  1  0  0  0  0
 11 15  1  0  0  0  0
  8 22  1  0  0  0  0
 10 23  1  0  0  0  0
 26 33  1  0  0  0  0
 20 24  1  0  0  0  0
  9 13  1  0  0  0  0
 35 44  1  0  0  0  0
 41 46  1  0  0  0  0
 48 50  1  0  0  0  0
 48 49  1  0  0  0  0
 41 47  1  0  0  0  0
 41 48  1  0  0  0  0
 30 32  2  0  0  0  0
 25 29  2  0  0  0  0
 27 28  2  0  0  0  0
 31 32  1  0  0  0  0
 31 14  1  0  0  0  0
 31 19  1  0  0  0  0
 31 41  1  0  0  0  0
 31 45  1  0  0  0  0
 31 34  1  0  0  0  0
M  END
$$$$
