compound_68
  GFN2-xTB geometry (ORCA XTB2, DDCOSMO(water))

 68 75  0  0  0  0  0  0  0  0999 V2000
   -0.5444   -2.8430    1.1522 Ru  0  0  0  0  0  0  0  0  0  0  0  0
    1.6975   -3.1418   -0.7115 C   0  0  0  0  0  0  0  0  0  0  0  0
    2.7526   -3.8510   -1.3030 C   0  0  0  0  0  0  0  0  0  0  0  0
    3.0703   -5.1329   -0.8847 C   0  0  0  0  0  0  0  0  0  0  0  0
    2.3119   -5.7156    0.1178 C   0  0  0  0  0  0  0  0  0  0  0  0
    1.2823   -4.9830    0.6694 C   0  0  0  0  0  0  0  0  0  0  0  0
    0.9951   -3.7399    0.2877 N   0  0  0  0  0  0  0  0  0  0  0  0
    2.1102   -4.2575    3.5050 H   0  0  0  0  0  0  0  0  0  0  0  0
    3.7085   -3.2017   -2.5885 Cl  0  0  0  0  0  0  0  0  0  0  0  0
    2.5158   -6.7151    0.4602 H   0  0  0  0  0  0  0  0  0  0  0  0
    0.6481   -5.4074    1.4378 H   0  0  0  0  0  0  0  0  0  0  0  0
    1.1529   -1.8280   -1.0268 C   0  0  0  0  0  0  0  0  0  0  0  0
    1.6089   -0.9265   -1.9880 C   0  0  0  0  0  0  0  0  0  0  0  0
    0.9264    0.2576   -2.2314 C   0  0  0  0  0  0  0  0  0  0  0  0
   -0.2321    0.5284   -1.5037 C   0  0  0  0  0  0  0  0  0  0  0  0
   -0.6774   -0.3522   -0.5353 C   0  0  0  0  0  0  0  0  0  0  0  0
    0.0041   -1.5276   -0.2641 C   0  0  0  0  0  0  0  0  0  0  0  0
    2.4825   -1.1396   -2.5791 H   0  0  0  0  0  0  0  0  0  0  0  0
    3.8874   -5.6597   -1.3487 H   0  0  0  0  0  0  0  0  0  0  0  0
   -0.7734    1.4450   -1.6853 H   0  0  0  0  0  0  0  0  0  0  0  0
   -1.5825   -0.1170    0.0072 H   0  0  0  0  0  0  0  0  0  0  0  0
   -1.9530   -3.9788   -0.5026 Cl  0  0  0  0  0  0  0  0  0  0  0  0
   -0.6123   -1.2367    2.7020 C   0  0  0  0  0  0  0  0  0  0  0  0
   -1.9548   -1.6730    2.5951 C   0  0  0  0  0  0  0  0  0  0  0  0
   -2.1923   -3.0552    2.7637 C   0  0  0  0  0  0  0  0  0  0  0  0
   -1.1935   -3.9329    3.2541 C   0  0  0  0  0  0  0  0  0  0  0  0
    0.1153   -3.4845    3.4299 C   0  0  0  0  0  0  0  0  0  0  0  0
    0.4207   -2.1440    3.0489 C   0  0  0  0  0  0  0  0  0  0  0  0
   -2.6606    0.2558    2.0555 H   0  0  0  0  0  0  0  0  0  0  0  0
   -0.3826   -0.1807    2.6024 H   0  0  0  0  0  0  0  0  0  0  0  0
   -3.2083   -3.4305    2.6825 H   0  0  0  0  0  0  0  0  0  0  0  0
    1.4231   -1.7640    3.2197 H   0  0  0  0  0  0  0  0  0  0  0  0
   -1.4695   -4.9426    3.5307 H   0  0  0  0  0  0  0  0  0  0  0  0
   -3.0857   -0.6860    2.4176 C   0  0  0  0  0  0  0  0  0  0  0  0
   -4.1258   -1.1678    1.4031 C   0  0  0  0  0  0  0  0  0  0  0  0
   -3.7360   -0.4256    3.7813 C   0  0  0  0  0  0  0  0  0  0  0  0
   -3.0020   -0.0402    4.4842 H   0  0  0  0  0  0  0  0  0  0  0  0
   -4.1549   -1.3449    4.1841 H   0  0  0  0  0  0  0  0  0  0  0  0
   -4.5355    0.3022    3.6748 H   0  0  0  0  0  0  0  0  0  0  0  0
   -3.6400   -1.5561    0.5049 H   0  0  0  0  0  0  0  0  0  0  0  0
   -4.7761   -0.3470    1.1143 H   0  0  0  0  0  0  0  0  0  0  0  0
   -4.7455   -1.9594    1.8176 H   0  0  0  0  0  0  0  0  0  0  0  0
    1.1723   -4.3425    4.0496 C   0  0  0  0  0  0  0  0  0  0  0  0
    0.8675   -5.3849    4.0815 H   0  0  0  0  0  0  0  0  0  0  0  0
    1.3469   -4.0024    5.0705 H   0  0  0  0  0  0  0  0  0  0  0  0
    1.4124    1.1953   -3.2547 C   0  0  0  0  0  0  0  0  0  0  0  0
    0.5236    1.8380   -4.1130 C   0  0  0  0  0  0  0  0  0  0  0  0
    0.9834    2.7095   -5.0813 C   0  0  0  0  0  0  0  0  0  0  0  0
    2.3404    2.9744   -5.2183 C   0  0  0  0  0  0  0  0  0  0  0  0
    3.2269    2.3358   -4.3596 C   0  0  0  0  0  0  0  0  0  0  0  0
    2.7732    1.4589   -3.3937 C   0  0  0  0  0  0  0  0  0  0  0  0
   -0.5338    1.6328   -4.0332 H   0  0  0  0  0  0  0  0  0  0  0  0
    0.2784    3.1923   -5.7428 H   0  0  0  0  0  0  0  0  0  0  0  0
    3.4770    0.9847   -2.7255 H   0  0  0  0  0  0  0  0  0  0  0  0
    4.2859    2.5320   -4.4479 H   0  0  0  0  0  0  0  0  0  0  0  0
    2.8410    3.8842   -6.3013 C   0  0  0  0  0  0  0  0  0  0  0  0
    3.1495    3.0844   -7.5731 C   0  0  0  0  0  0  0  0  0  0  0  0
    3.6625    3.9773   -8.6998 C   0  0  0  0  0  0  0  0  0  0  0  0
    3.9718    3.1759   -9.9586 C   0  0  0  0  0  0  0  0  0  0  0  0
    2.9112    4.7365   -8.9281 H   0  0  0  0  0  0  0  0  0  0  0  0
    4.3346    3.8286  -10.7488 H   0  0  0  0  0  0  0  0  0  0  0  0
    3.0789    2.6670  -10.3148 H   0  0  0  0  0  0  0  0  0  0  0  0
    3.7493    4.3916   -5.9708 H   0  0  0  0  0  0  0  0  0  0  0  0
    2.0879    4.6406   -6.5297 H   0  0  0  0  0  0  0  0  0  0  0  0
    2.2432    2.5684   -7.8992 H   0  0  0  0  0  0  0  0  0  0  0  0
    3.8967    2.3213   -7.3427 H   0  0  0  0  0  0  0  0  0  0  0  0
    4.5655    4.4939   -8.3671 H   0  0  0  0  0  0  0  0  0  0  0  0
    4.7327    2.4259   -9.7547 H   0  0  0  0  0  0  0  0  0  0  0  0
  2 12  1  0  0  0  0
 14 46  1  0  0  0  0
  5  6  4  0  0  0  0
 50 51  4  0  0  0  0
 47 48  4  0  0  0  0
 15 16  4  0  0  0  0
  3  4  4  0  0  0  0
  4  5  4  0  0  0  0
 16 17  4  0  0  0  0
 27 43  1  0  0  0  0
 13 14  4  0  0  0  0
 48 49  4  0  0  0  0
 49 50  4  0  0  0  0
 49 56  1  0  0  0  0
 46 47  4  0  0  0  0
 46 51  4  0  0  0  0
 12 13  4  0  0  0  0
 26 27  4  0  0  0  0
 14 15  4  0  0  0  0
  6  7  4  0  0  0  0
 24 34  1  0  0  0  0
  3  9  1  0  0  0  0
  2  3  4  0  0  0  0
 12 17  4  0  0  0  0
 58 59  1  0  0  0  0
 24 25  4  0  0  0  0
 57 58  1  0  0  0  0
 23 24  4  0  0  0  0
 25 26  4  0  0  0  0
 23 28  4  0  0  0  0
 34 35  1  0  0  0  0
 34 36  1  0  0  0  0
 56 57  1  0  0  0  0
  2  7  4  0  0  0  0
 27 28  4  0  0  0  0
  5 10  1  0  0  0  0
 13 18  1  0  0  0  0
  4 19  1  0  0  0  0
 15 20  1  0  0  0  0
 51 54  1  0  0  0  0
 47 52  1  0  0  0  0
 50 55  1  0  0  0  0
 48 53  1  0  0  0  0
 16 21  1  0  0  0  0
 26 33  1  0  0  0  0
  6 11  1  0  0  0  0
 23 30  1  0  0  0  0
 28 32  1  0  0  0  0
 25 31  1  0  0  0  0
 35 41  1  0  0  0  0
 36 39  1  0  0  0  0
 43 44  1  0  0  0  0
 36 37  1  0  0  0  0
 59 61  1  0  0  0  0
 35 42  1  0  0  0  0
 36 38  1  0  0  0  0
 59 68  1  0  0  0  0
 59 62  1  0  0  0  0
  8 43  1  0  0  0  0
 43 45  1  0  0  0  0
 56 64  1  0  0  0  0
 56 63  1  0  0  0  0
 58 60  1  0  0  0  0
 58 67  1  0  0  0  0
 35 40  1  0  0  0  0
 57 66  1  0  0  0  0
 57 65  1  0  0  0  0
 29 34  1  0  0  0  0
  1  7  1  0  0  0  0
  1 22  1  0  0  0  0
  1 24  1  0  0  0  0
  1 27  1  0  0  0  0
  1 26  1  0  0  0  0
  1 17  1  0  0  0  0
  1 23  1  0  0  0  0
M  END
$$$$
