compound_31
  GFN2-xTB geometry (ORCA XTB2, DDCOSMO(water))

 43 53  0  0  0  0  0  0  0  0999 V2000
    2.6990   -2.3999   -0.4901 C   0  0  0  0  0  0  0  0  0  0  0  0
    2.0014   -1.5435    0.3958 C   0  0  0  0  0  0  0  0  0  0  0  0
    0.7123   -1.9747    0.8084 C   0  0  0  0  0  0  0  0  0  0  0  0
    0.2125   -3.1964    0.3280 C   0  0  0  0  0  0  0  0  0  0  0  0
    0.9155   -4.0539   -0.5720 C   0  0  0  0  0  0  0  0  0  0  0  0
    2.1722   -3.6141   -0.9603 C   0  0  0  0  0  0  0  0  0  0  0  0
   -3.1009   -5.4922    0.6132 H   0  0  0  0  0  0  0  0  0  0  0  0
   -2.9729   -7.5699   -0.7351 H   0  0  0  0  0  0  0  0  0  0  0  0
   -0.3001    0.4332    2.7802 H   0  0  0  0  0  0  0  0  0  0  0  0
   -4.3708   -1.5029    3.5843 H   0  0  0  0  0  0  0  0  0  0  0  0
    2.4473   -0.3138    0.9080 C   0  0  0  0  0  0  0  0  0  0  0  0
    1.5965    0.3561    1.7559 C   0  0  0  0  0  0  0  0  0  0  0  0
    0.3365   -0.1356    2.1177 C   0  0  0  0  0  0  0  0  0  0  0  0
   -0.0965   -1.2926    1.6479 N   0  0  0  0  0  0  0  0  0  0  0  0
    3.4141    0.0827    0.6428 H   0  0  0  0  0  0  0  0  0  0  0  0
   -0.4111   -2.9408    4.6414 H   0  0  0  0  0  0  0  0  0  0  0  0
    0.0142   -5.1486   -0.7769 C   0  0  0  0  0  0  0  0  0  0  0  0
   -1.1437   -4.8560    0.0084 C   0  0  0  0  0  0  0  0  0  0  0  0
   -0.9864   -3.6638    0.6785 N   0  0  0  0  0  0  0  0  0  0  0  0
    0.9476   -6.5356   -2.1188 H   0  0  0  0  0  0  0  0  0  0  0  0
   -2.2260   -5.7258    0.0263 C   0  0  0  0  0  0  0  0  0  0  0  0
   -2.1448   -6.8783   -0.7309 C   0  0  0  0  0  0  0  0  0  0  0  0
   -1.0142   -7.1717   -1.4946 C   0  0  0  0  0  0  0  0  0  0  0  0
    0.0703   -6.3169   -1.5278 C   0  0  0  0  0  0  0  0  0  0  0  0
    3.1781   -4.2218   -1.8617 C   0  0  0  0  0  0  0  0  0  0  0  0
    4.2352   -3.3439   -1.8737 N   0  0  0  0  0  0  0  0  0  0  0  0
    4.0217   -2.2235   -1.0709 C   0  0  0  0  0  0  0  0  0  0  0  0
    4.8306   -1.3257   -0.9315 O   0  0  0  0  0  0  0  0  0  0  0  0
    3.1291   -5.2656   -2.4779 O   0  0  0  0  0  0  0  0  0  0  0  0
   -0.9894   -8.0832   -2.0714 H   0  0  0  0  0  0  0  0  0  0  0  0
   -1.8823   -2.3423    2.0268 Ru  0  0  0  0  0  0  0  0  0  0  0  0
   -2.7288   -1.4688    0.6483 C   0  0  0  0  0  0  0  0  0  0  0  0
   -1.7667   -4.9803    3.5689 H   0  0  0  0  0  0  0  0  0  0  0  0
   -1.3692   -2.8722    4.1435 C   0  0  0  0  0  0  0  0  0  0  0  0
   -2.2192   -1.7183    4.1373 C   0  0  0  0  0  0  0  0  0  0  0  0
   -3.4720   -2.1057    3.6015 C   0  0  0  0  0  0  0  0  0  0  0  0
   -3.3874   -3.4829    3.2263 C   0  0  0  0  0  0  0  0  0  0  0  0
   -2.0951   -3.9504    3.6078 C   0  0  0  0  0  0  0  0  0  0  0  0
   -2.0115   -0.7842    4.6398 H   0  0  0  0  0  0  0  0  0  0  0  0
   -3.2704   -0.9204   -0.2092 O   0  0  0  0  0  0  0  0  0  0  0  0
    1.9722    1.5413    2.2788 F   0  0  0  0  0  0  0  0  0  0  0  0
    5.0799   -3.4896   -2.4066 H   0  0  0  0  0  0  0  0  0  0  0  0
   -4.2231   -4.1071    2.9426 H   0  0  0  0  0  0  0  0  0  0  0  0
  2  3  1  0  0  0  0
  5 17  1  0  0  0  0
  1 27  1  0  0  0  0
 12 41  1  0  0  0  0
  4 19  1  0  0  0  0
  6 25  1  0  0  0  0
 11 12  4  0  0  0  0
 23 24  4  0  0  0  0
 21 22  4  0  0  0  0
 13 14  4  0  0  0  0
  5  6  4  0  0  0  0
 18 21  4  0  0  0  0
 17 24  4  0  0  0  0
 22 23  4  0  0  0  0
 12 13  4  0  0  0  0
  1  6  4  0  0  0  0
  3  4  4  0  0  0  0
  2 11  4  0  0  0  0
 34 38  4  0  0  0  0
 25 26  1  0  0  0  0
 18 19  1  0  0  0  0
  3 14  4  0  0  0  0
  1  2  4  0  0  0  0
 35 36  4  0  0  0  0
 37 38  4  0  0  0  0
  4  5  4  0  0  0  0
 17 18  4  0  0  0  0
 36 37  4  0  0  0  0
 26 27  1  0  0  0  0
 34 35  4  0  0  0  0
 11 15  1  0  0  0  0
 23 30  1  0  0  0  0
  8 22  1  0  0  0  0
  7 21  1  0  0  0  0
 26 42  1  0  0  0  0
 20 24  1  0  0  0  0
  9 13  1  0  0  0  0
 35 39  1  0  0  0  0
 37 43  1  0  0  0  0
 33 38  1  0  0  0  0
 16 34  1  0  0  0  0
 10 36  1  0  0  0  0
 32 40  2  0  0  0  0
 25 29  2  0  0  0  0
 27 28  2  0  0  0  0
 31 36  1  0  0  0  0
 31 19  1  0  0  0  0
 31 37  1  0  0  0  0
 31 38  1  0  0  0  0
 31 14  1  0  0  0  0
 31 32  1  0  0  0  0
 31 34  1  0  0  0  0
 31 35  1  0  0  0  0
M  END
$$$$
