compound_12
  GFN2-xTB geometry (ORCA XTB2, DDCOSMO(water))

 43 52  0  0  0  0  0  0  0  0999 V2000
    2.1723   -0.6241    2.8057 C   0  0  0  0  0  0  0  0  0  0  0  0
   -0.9093   -0.7682   -1.1979 C   0  0  0  0  0  0  0  0  0  0  0  0
    0.0415   -1.4168   -0.4109 C   0  0  0  0  0  0  0  0  0  0  0  0
    1.3530   -1.8740   -0.8585 C   0  0  0  0  0  0  0  0  0  0  0  0
    1.0873   -0.9835    3.6612 C   0  0  0  0  0  0  0  0  0  0  0  0
    0.3797   -5.2886    1.4729 O   0  0  0  0  0  0  0  0  0  0  0  0
    2.6686   -2.6375    3.7915 C   0  0  0  0  0  0  0  0  0  0  0  0
    2.3259    0.3565    2.3724 H   0  0  0  0  0  0  0  0  0  0  0  0
   -1.5698   -1.6940    2.4296 H   0  0  0  0  0  0  0  0  0  0  0  0
    6.7686   -4.6338   -1.3137 H   0  0  0  0  0  0  0  0  0  0  0  0
   -2.1310   -0.4279   -0.6501 C   0  0  0  0  0  0  0  0  0  0  0  0
   -2.3873   -0.7579    0.6746 C   0  0  0  0  0  0  0  0  0  0  0  0
   -1.4028   -1.4010    1.4001 C   0  0  0  0  0  0  0  0  0  0  0  0
   -0.2167   -1.7108    0.8814 N   0  0  0  0  0  0  0  0  0  0  0  0
   -2.8743    0.0772   -1.2453 H   0  0  0  0  0  0  0  0  0  0  0  0
   -3.3313   -0.5239    1.1368 H   0  0  0  0  0  0  0  0  0  0  0  0
    5.1082   -3.4564   -1.9188 C   0  0  0  0  0  0  0  0  0  0  0  0
    5.8116   -4.2334   -1.0132 C   0  0  0  0  0  0  0  0  0  0  0  0
    2.0859   -2.5739    0.1168 C   0  0  0  0  0  0  0  0  0  0  0  0
    5.2565   -2.2670   -5.0118 H   0  0  0  0  0  0  0  0  0  0  0  0
    3.3292   -3.1441   -0.2679 C   0  0  0  0  0  0  0  0  0  0  0  0
    3.8528   -2.9127   -1.5692 C   0  0  0  0  0  0  0  0  0  0  0  0
    3.1050   -2.1492   -2.4958 C   0  0  0  0  0  0  0  0  0  0  0  0
    1.8595   -1.6599   -2.1413 C   0  0  0  0  0  0  0  0  0  0  0  0
    5.2794   -4.4985    0.2456 C   0  0  0  0  0  0  0  0  0  0  0  0
    4.0659   -3.9652    0.6089 C   0  0  0  0  0  0  0  0  0  0  0  0
    3.6383   -4.1840    1.5790 H   0  0  0  0  0  0  0  0  0  0  0  0
    5.8254   -5.1264    0.9313 H   0  0  0  0  0  0  0  0  0  0  0  0
    5.6611   -3.2015   -3.2470 C   0  0  0  0  0  0  0  0  0  0  0  0
    4.8788   -2.4411   -4.0853 N   0  0  0  0  0  0  0  0  0  0  0  0
    1.3074   -2.4913    1.9821 Ru  0  0  0  0  0  0  0  0  0  0  0  0
    0.7107   -4.2004    1.6993 C   0  0  0  0  0  0  0  0  0  0  0  0
    3.6353   -1.8999   -3.8261 C   0  0  0  0  0  0  0  0  0  0  0  0
    3.2391   -3.4634    4.1960 H   0  0  0  0  0  0  0  0  0  0  0  0
    3.0607   -1.2594   -4.6990 O   0  0  0  0  0  0  0  0  0  0  0  0
    6.7473   -3.6128   -3.6350 O   0  0  0  0  0  0  0  0  0  0  0  0
   -0.6845   -0.5399   -2.2260 H   0  0  0  0  0  0  0  0  0  0  0  0
    0.8148   -2.6993    5.0462 H   0  0  0  0  0  0  0  0  0  0  0  0
    4.1671   -1.5844    2.5249 H   0  0  0  0  0  0  0  0  0  0  0  0
    3.1671   -1.6285    2.9346 C   0  0  0  0  0  0  0  0  0  0  0  0
    1.3797   -2.2196    4.2592 C   0  0  0  0  0  0  0  0  0  0  0  0
    0.2423   -0.3503    3.8952 H   0  0  0  0  0  0  0  0  0  0  0  0
    1.3114   -1.0996   -2.8839 H   0  0  0  0  0  0  0  0  0  0  0  0
 21 22  1  0  0  0  0
 23 33  1  0  0  0  0
  3  4  1  0  0  0  0
 17 29  1  0  0  0  0
 25 26  4  0  0  0  0
  2 11  4  0  0  0  0
 12 13  4  0  0  0  0
 23 24  4  0  0  0  0
 17 18  4  0  0  0  0
 11 12  4  0  0  0  0
 18 25  4  0  0  0  0
  2  3  4  0  0  0  0
 13 14  4  0  0  0  0
  4 24  4  0  0  0  0
  5 41  4  0  0  0  0
  4 19  4  0  0  0  0
 21 26  4  0  0  0  0
 17 22  4  0  0  0  0
 29 30  1  0  0  0  0
 22 23  4  0  0  0  0
  3 14  4  0  0  0  0
  7 40  4  0  0  0  0
 30 33  1  0  0  0  0
  1 40  4  0  0  0  0
 19 21  4  0  0  0  0
  1  5  4  0  0  0  0
  7 41  4  0  0  0  0
  2 37  1  0  0  0  0
 12 16  1  0  0  0  0
 11 15  1  0  0  0  0
 25 28  1  0  0  0  0
 24 43  1  0  0  0  0
 10 18  1  0  0  0  0
 38 41  1  0  0  0  0
  5 42  1  0  0  0  0
 39 40  1  0  0  0  0
  7 34  1  0  0  0  0
 26 27  1  0  0  0  0
  1  8  1  0  0  0  0
  9 13  1  0  0  0  0
 20 30  1  0  0  0  0
  6 32  2  0  0  0  0
 29 36  2  0  0  0  0
 33 35  2  0  0  0  0
 31 32  1  0  0  0  0
 31  1  1  0  0  0  0
 31 14  1  0  0  0  0
 31 19  1  0  0  0  0
 31 40  1  0  0  0  0
 31  5  1  0  0  0  0
 31  7  1  0  0  0  0
 31 41  1  0  0  0  0
M  END
$$$$
