compound_100
  GFN2-xTB geometry (ORCA XTB2, DDCOSMO(water))

 71 80  0  0  0  0  0  0  0  0999 V2000
    8.1677   -5.8493   -0.0440 Ru  0  0  0  0  0  0  0  0  0  0  0  0
    9.6229   -5.2508   -1.8917 C   0  0  0  0  0  0  0  0  0  0  0  0
    9.4002   -6.6643   -1.8706 C   0  0  0  0  0  0  0  0  0  0  0  0
    9.7095   -7.4240   -0.7445 C   0  0  0  0  0  0  0  0  0  0  0  0
   10.1405   -6.7966    0.4629 C   0  0  0  0  0  0  0  0  0  0  0  0
   10.3051   -5.3898    0.4531 C   0  0  0  0  0  0  0  0  0  0  0  0
   10.1030   -4.6364   -0.7338 C   0  0  0  0  0  0  0  0  0  0  0  0
    9.0942   -7.1494   -2.7915 H   0  0  0  0  0  0  0  0  0  0  0  0
    9.6635   -8.5059   -0.7908 H   0  0  0  0  0  0  0  0  0  0  0  0
    8.4194   -4.6158   -3.5419 H   0  0  0  0  0  0  0  0  0  0  0  0
   10.7182   -4.8914    1.3224 H   0  0  0  0  0  0  0  0  0  0  0  0
   10.3645   -3.5850   -0.7536 H   0  0  0  0  0  0  0  0  0  0  0  0
    9.4380   -4.4948   -3.1695 C   0  0  0  0  0  0  0  0  0  0  0  0
   10.1149   -4.8851   -3.9289 H   0  0  0  0  0  0  0  0  0  0  0  0
    9.6313   -3.4337   -3.0355 H   0  0  0  0  0  0  0  0  0  0  0  0
   10.5469   -7.6384    1.6490 C   0  0  0  0  0  0  0  0  0  0  0  0
   12.0565   -7.8974    1.5665 C   0  0  0  0  0  0  0  0  0  0  0  0
   10.1768   -6.9869    2.9818 C   0  0  0  0  0  0  0  0  0  0  0  0
   10.0285   -8.5996    1.5791 H   0  0  0  0  0  0  0  0  0  0  0  0
   12.3674   -8.5288    2.3941 H   0  0  0  0  0  0  0  0  0  0  0  0
   12.6079   -6.9619    1.6202 H   0  0  0  0  0  0  0  0  0  0  0  0
   12.3149   -8.3961    0.6356 H   0  0  0  0  0  0  0  0  0  0  0  0
   10.8321   -6.1505    3.2079 H   0  0  0  0  0  0  0  0  0  0  0  0
   10.2778   -7.7138    3.7827 H   0  0  0  0  0  0  0  0  0  0  0  0
    9.1467   -6.6329    2.9590 H   0  0  0  0  0  0  0  0  0  0  0  0
    6.2214   -5.3721   -1.3870 Cl  0  0  0  0  0  0  0  0  0  0  0  0
    7.4053   -4.6695    1.3695 N   0  0  0  0  0  0  0  0  0  0  0  0
    6.7019   -5.2193    2.3950 C   0  0  0  0  0  0  0  0  0  0  0  0
    7.6076   -3.3568    1.3456 C   0  0  0  0  0  0  0  0  0  0  0  0
    6.2818   -4.4309    3.4657 C   0  0  0  0  0  0  0  0  0  0  0  0
    7.1710   -2.5146    2.3512 C   0  0  0  0  0  0  0  0  0  0  0  0
    6.5209   -3.0704    3.4442 C   0  0  0  0  0  0  0  0  0  0  0  0
    6.1984   -2.4484    4.2625 H   0  0  0  0  0  0  0  0  0  0  0  0
    8.1359   -2.9654    0.4850 H   0  0  0  0  0  0  0  0  0  0  0  0
    7.3504   -1.4554    2.2796 H   0  0  0  0  0  0  0  0  0  0  0  0
    5.7812   -4.8698    4.3083 H   0  0  0  0  0  0  0  0  0  0  0  0
    6.5012   -6.6335    2.1895 C   0  0  0  0  0  0  0  0  0  0  0  0
    7.0961   -7.1219    1.0710 N   0  0  0  0  0  0  0  0  0  0  0  0
    6.7870   -8.4288    1.0299 C   0  0  0  0  0  0  0  0  0  0  0  0
    5.9979   -8.7476    2.1477 C   0  0  0  0  0  0  0  0  0  0  0  0
    5.8379   -7.6125    2.8788 N   0  0  0  0  0  0  0  0  0  0  0  0
    6.9557   -9.5927    0.3506 N   0  0  0  0  0  0  0  0  0  0  0  0
    6.2689  -10.5294    1.0713 C   0  0  0  0  0  0  0  0  0  0  0  0
    5.6881  -10.0665    2.1533 N   0  0  0  0  0  0  0  0  0  0  0  0
    0.9560   -3.7008   -0.3726 H   0  0  0  0  0  0  0  0  0  0  0  0
    4.9842   -7.5345    4.0412 C   0  0  0  0  0  0  0  0  0  0  0  0
    3.5201   -7.2701    3.6431 C   0  0  0  0  0  0  0  0  0  0  0  0
    3.4118   -6.0063    2.8444 C   0  0  0  0  0  0  0  0  0  0  0  0
    3.2222   -4.7797    3.4715 C   0  0  0  0  0  0  0  0  0  0  0  0
    3.2646   -3.6011    2.7518 C   0  0  0  0  0  0  0  0  0  0  0  0
    3.4937   -3.6440    1.3820 C   0  0  0  0  0  0  0  0  0  0  0  0
    3.6083   -4.8655    0.7316 C   0  0  0  0  0  0  0  0  0  0  0  0
    3.5812   -6.0367    1.4645 C   0  0  0  0  0  0  0  0  0  0  0  0
    3.0546   -4.7440    4.5361 H   0  0  0  0  0  0  0  0  0  0  0  0
    3.1448   -2.6482    3.2420 H   0  0  0  0  0  0  0  0  0  0  0  0
    3.1584   -8.1144    3.0570 H   0  0  0  0  0  0  0  0  0  0  0  0
    3.7471   -4.8892   -0.3397 H   0  0  0  0  0  0  0  0  0  0  0  0
    3.6916   -6.9778    0.9469 H   0  0  0  0  0  0  0  0  0  0  0  0
    6.2152  -11.5565    0.7746 H   0  0  0  0  0  0  0  0  0  0  0  0
    5.3498   -6.7628    4.7136 H   0  0  0  0  0  0  0  0  0  0  0  0
    5.0445   -8.5045    4.5372 H   0  0  0  0  0  0  0  0  0  0  0  0
    2.9327   -7.1973    4.5565 H   0  0  0  0  0  0  0  0  0  0  0  0
    3.5588   -2.3818    0.5944 C   0  0  0  0  0  0  0  0  0  0  0  0
    4.3660   -2.4956   -0.5086 F   0  0  0  0  0  0  0  0  0  0  0  0
    4.1026   -1.3559    1.3144 F   0  0  0  0  0  0  0  0  0  0  0  0
    1.8943   -1.7846   -0.0294 P   0  0  0  0  0  0  0  0  0  0  0  0
    2.0012   -0.5277   -0.7790 O   0  0  0  0  0  0  0  0  0  0  0  0
    0.9801   -1.7653    1.2604 O   0  0  0  0  0  0  0  0  0  0  0  0
    0.8924   -0.8987    1.6721 H   0  0  0  0  0  0  0  0  0  0  0  0
    1.3339   -2.9749   -0.8880 O   0  0  0  0  0  0  0  0  0  0  0  0
    7.4459   -9.7415   -0.5168 H   0  0  0  0  0  0  0  0  0  0  0  0
 66 70  1  0  0  0  0
 66 68  1  0  0  0  0
 51 63  1  0  0  0  0
 30 32  1  0  0  0  0
 49 50  4  0  0  0  0
 52 53  4  0  0  0  0
 29 31  1  0  0  0  0
 63 65  1  0  0  0  0
  2 13  1  0  0  0  0
 31 32  2  0  0  0  0
 63 64  1  0  0  0  0
 51 52  4  0  0  0  0
 47 48  1  0  0  0  0
 50 51  4  0  0  0  0
 48 53  4  0  0  0  0
 48 49  4  0  0  0  0
 27 29  2  0  0  0  0
 40 44  1  0  0  0  0
  3  4  4  0  0  0  0
 28 30  2  0  0  0  0
 39 42  1  0  0  0  0
  2  7  4  0  0  0  0
 40 41  1  0  0  0  0
 27 28  1  0  0  0  0
  5 16  1  0  0  0  0
 42 43  1  0  0  0  0
 39 40  2  0  0  0  0
 37 41  1  0  0  0  0
 38 39  1  0  0  0  0
  5  6  4  0  0  0  0
 16 18  1  0  0  0  0
  6  7  4  0  0  0  0
 16 17  1  0  0  0  0
 37 38  2  0  0  0  0
  4  5  4  0  0  0  0
 46 47  1  0  0  0  0
 43 59  1  0  0  0  0
  2  3  4  0  0  0  0
 63 66  1  0  0  0  0
 30 36  1  0  0  0  0
 68 69  1  0  0  0  0
 31 35  1  0  0  0  0
 32 33  1  0  0  0  0
 42 71  1  0  0  0  0
 45 70  1  0  0  0  0
 49 54  1  0  0  0  0
 50 55  1  0  0  0  0
 53 58  1  0  0  0  0
 52 57  1  0  0  0  0
 28 37  1  0  0  0  0
 29 34  1  0  0  0  0
  7 12  1  0  0  0  0
  6 11  1  0  0  0  0
  4  9  1  0  0  0  0
  3  8  1  0  0  0  0
 18 24  1  0  0  0  0
 18 23  1  0  0  0  0
 17 20  1  0  0  0  0
 13 15  1  0  0  0  0
 46 60  1  0  0  0  0
 17 22  1  0  0  0  0
 17 21  1  0  0  0  0
 47 62  1  0  0  0  0
 18 25  1  0  0  0  0
 47 56  1  0  0  0  0
 13 14  1  0  0  0  0
 46 61  1  0  0  0  0
 10 13  1  0  0  0  0
 16 19  1  0  0  0  0
 41 46  1  0  0  0  0
 66 67  2  0  0  0  0
 43 44  2  0  0  0  0
  1 26  1  0  0  0  0
  1  4  1  0  0  0  0
  1 38  1  0  0  0  0
  1  2  1  0  0  0  0
  1  3  1  0  0  0  0
  1  5  1  0  0  0  0
  1  7  1  0  0  0  0
  1 27  1  0  0  0  0
M  END
$$$$
