compound_115
  GFN2-xTB geometry (ORCA XTB2, DDCOSMO(water))

 43 48  0  0  0  0  0  0  0  0999 V2000
    9.0909   -4.0637   -1.1362 Ru  0  0  0  0  0  0  0  0  0  0  0  0
   11.3518   -4.5884   -1.0826 C   0  0  0  0  0  0  0  0  0  0  0  0
   10.8676   -4.8778   -2.3761 C   0  0  0  0  0  0  0  0  0  0  0  0
    9.8238   -5.8259   -2.5813 C   0  0  0  0  0  0  0  0  0  0  0  0
    9.2159   -6.3784   -1.4293 C   0  0  0  0  0  0  0  0  0  0  0  0
    9.7098   -6.0968   -0.1343 C   0  0  0  0  0  0  0  0  0  0  0  0
   10.8266   -5.2546    0.0577 C   0  0  0  0  0  0  0  0  0  0  0  0
    8.5345   -5.0502   -4.5376 C   0  0  0  0  0  0  0  0  0  0  0  0
   10.3184   -6.2400   -4.5910 H   0  0  0  0  0  0  0  0  0  0  0  0
    7.6468   -4.9217   -3.9139 H   0  0  0  0  0  0  0  0  0  0  0  0
    9.2935   -6.6157    0.7218 H   0  0  0  0  0  0  0  0  0  0  0  0
    8.2119   -5.2928   -5.5457 H   0  0  0  0  0  0  0  0  0  0  0  0
    8.6683   -7.5164   -4.0812 C   0  0  0  0  0  0  0  0  0  0  0  0
   12.1326   -4.2692    1.4335 H   0  0  0  0  0  0  0  0  0  0  0  0
    9.2287   -8.3111   -3.5965 H   0  0  0  0  0  0  0  0  0  0  0  0
   11.9794   -6.0225    1.6477 H   0  0  0  0  0  0  0  0  0  0  0  0
    8.4267   -7.1131   -1.5383 H   0  0  0  0  0  0  0  0  0  0  0  0
   11.3709   -4.4515   -3.2409 H   0  0  0  0  0  0  0  0  0  0  0  0
   11.4420   -5.1059    1.4017 C   0  0  0  0  0  0  0  0  0  0  0  0
   12.2277   -3.9574   -0.9696 H   0  0  0  0  0  0  0  0  0  0  0  0
    7.1491   -4.0698   -0.8132 N   0  0  0  0  0  0  0  0  0  0  0  0
    8.5407   -7.7762   -5.1282 H   0  0  0  0  0  0  0  0  0  0  0  0
    9.4090   -6.1854   -3.9837 C   0  0  0  0  0  0  0  0  0  0  0  0
    7.6791   -7.4452   -3.6358 H   0  0  0  0  0  0  0  0  0  0  0  0
   10.6650   -4.9633    2.1521 H   0  0  0  0  0  0  0  0  0  0  0  0
    8.7339   -2.2321   -2.4534 Cl  0  0  0  0  0  0  0  0  0  0  0  0
    9.0777   -4.1077   -4.5629 H   0  0  0  0  0  0  0  0  0  0  0  0
    6.3403   -4.5496   -1.7387 N   0  0  0  0  0  0  0  0  0  0  0  0
    5.0805   -4.4470   -1.4070 C   0  0  0  0  0  0  0  0  0  0  0  0
    4.8782   -3.6689    0.2411 S   0  0  0  0  0  0  0  0  0  0  0  0
    6.6021   -3.5814    0.2616 C   0  0  0  0  0  0  0  0  0  0  0  0
    4.0464   -4.8288   -2.0908 N   0  0  0  0  0  0  0  0  0  0  0  0
    2.8512   -4.6101   -1.5116 C   0  0  0  0  0  0  0  0  0  0  0  0
    2.7450   -4.0744   -0.3910 O   0  0  0  0  0  0  0  0  0  0  0  0
    1.6616   -5.0533   -2.2992 C   0  0  0  0  0  0  0  0  0  0  0  0
    1.6417   -4.5141   -3.2423 H   0  0  0  0  0  0  0  0  0  0  0  0
    0.7537   -4.8618   -1.7356 H   0  0  0  0  0  0  0  0  0  0  0  0
    1.7563   -6.1122   -2.5217 H   0  0  0  0  0  0  0  0  0  0  0  0
    7.8905   -3.2075    1.4383 S   0  0  0  0  0  0  0  0  0  0  0  0
    7.5110   -2.1809    2.3736 O   0  0  0  0  0  0  0  0  0  0  0  0
    8.2302   -4.4998    1.9873 O   0  0  0  0  0  0  0  0  0  0  0  0
    9.0781   -2.7607    0.4622 N   0  0  0  0  0  0  0  0  0  0  0  0
    9.0348   -1.7608    0.3045 H   0  0  0  0  0  0  0  0  0  0  0  0
 39 42  1  0  0  0  0
 29 32  4  0  0  0  0
 30 31  1  0  0  0  0
 21 31  4  0  0  0  0
 28 29  4  0  0  0  0
  7 19  1  0  0  0  0
 32 33  1  0  0  0  0
 33 35  1  0  0  0  0
  4 23  1  0  0  0  0
 31 39  1  0  0  0  0
  2  3  4  0  0  0  0
  6  7  4  0  0  0  0
  5  6  4  0  0  0  0
 13 23  1  0  0  0  0
  4  5  4  0  0  0  0
  2  7  4  0  0  0  0
  8 23  1  0  0  0  0
  3  4  4  0  0  0  0
  5 17  1  0  0  0  0
 29 30  1  0  0  0  0
 42 43  1  0  0  0  0
  6 11  1  0  0  0  0
 14 19  1  0  0  0  0
  2 20  1  0  0  0  0
 35 37  1  0  0  0  0
  8 12  1  0  0  0  0
 35 38  1  0  0  0  0
 13 22  1  0  0  0  0
 35 36  1  0  0  0  0
 13 15  1  0  0  0  0
 13 24  1  0  0  0  0
  3 18  1  0  0  0  0
 21 28  4  0  0  0  0
  8 27  1  0  0  0  0
 19 25  1  0  0  0  0
 16 19  1  0  0  0  0
  8 10  1  0  0  0  0
  9 23  1  0  0  0  0
 39 40  2  0  0  0  0
 39 41  2  0  0  0  0
 33 34  2  0  0  0  0
  1  4  1  0  0  0  0
  1  5  1  0  0  0  0
  1  6  1  0  0  0  0
  1  7  1  0  0  0  0
  1 21  1  0  0  0  0
  1 26  1  0  0  0  0
  1 42  1  0  0  0  0
M  END
$$$$
