compound_96
  GFN2-xTB geometry (ORCA XTB2, DDCOSMO(water))

 36 43  0  0  0  0  0  0  0  0999 V2000
    7.6494   -5.5561    0.7917 Ru  0  0  0  0  0  0  0  0  0  0  0  0
    8.2541   -4.7507   -1.3074 C   0  0  0  0  0  0  0  0  0  0  0  0
    7.7384   -6.0750   -1.4550 C   0  0  0  0  0  0  0  0  0  0  0  0
    8.2797   -7.1406   -0.7375 C   0  0  0  0  0  0  0  0  0  0  0  0
    9.3194   -6.9043    0.2048 C   0  0  0  0  0  0  0  0  0  0  0  0
    9.8359   -5.6043    0.3600 C   0  0  0  0  0  0  0  0  0  0  0  0
    9.3147   -4.5319   -0.4128 C   0  0  0  0  0  0  0  0  0  0  0  0
    6.9507   -6.2512   -2.1791 H   0  0  0  0  0  0  0  0  0  0  0  0
    7.9311   -8.1492   -0.9257 H   0  0  0  0  0  0  0  0  0  0  0  0
    6.0261   -4.7706    3.5272 H   0  0  0  0  0  0  0  0  0  0  0  0
   10.6912   -5.4328    1.0036 H   0  0  0  0  0  0  0  0  0  0  0  0
    9.7758   -3.5524   -0.3663 H   0  0  0  0  0  0  0  0  0  0  0  0
    5.4108   -4.6514    0.6203 Cl  0  0  0  0  0  0  0  0  0  0  0  0
    6.8584   -6.8831    2.2139 N   0  0  0  0  0  0  0  0  0  0  0  0
    7.3069   -6.5012    3.5594 C   0  0  0  0  0  0  0  0  0  0  0  0
    8.8266   -4.3384    2.8065 H   0  0  0  0  0  0  0  0  0  0  0  0
    7.0890   -4.9990    3.6600 C   0  0  0  0  0  0  0  0  0  0  0  0
    7.8370   -4.3986    2.5438 N   0  0  0  0  0  0  0  0  0  0  0  0
    7.5014   -3.4455    2.3858 H   0  0  0  0  0  0  0  0  0  0  0  0
    5.8368   -6.7972    2.1670 H   0  0  0  0  0  0  0  0  0  0  0  0
    7.0976   -7.8609    2.0334 H   0  0  0  0  0  0  0  0  0  0  0  0
    8.3729   -6.7315    3.6466 H   0  0  0  0  0  0  0  0  0  0  0  0
    6.7516   -7.0348    4.3348 H   0  0  0  0  0  0  0  0  0  0  0  0
    7.4284   -4.6065    4.6216 H   0  0  0  0  0  0  0  0  0  0  0  0
    9.7712   -7.7372    0.7302 H   0  0  0  0  0  0  0  0  0  0  0  0
    7.7088   -3.6442   -2.1103 C   0  0  0  0  0  0  0  0  0  0  0  0
    7.5082   -2.3897   -1.5351 C   0  0  0  0  0  0  0  0  0  0  0  0
    6.9785   -1.3541   -2.2804 C   0  0  0  0  0  0  0  0  0  0  0  0
    6.6509   -1.5511   -3.6121 C   0  0  0  0  0  0  0  0  0  0  0  0
    6.8539   -2.7914   -4.1944 C   0  0  0  0  0  0  0  0  0  0  0  0
    7.3741   -3.8337   -3.4498 C   0  0  0  0  0  0  0  0  0  0  0  0
    7.7351   -2.2346   -0.4902 H   0  0  0  0  0  0  0  0  0  0  0  0
    6.8150   -0.3905   -1.8223 H   0  0  0  0  0  0  0  0  0  0  0  0
    6.2357   -0.7422   -4.1939 H   0  0  0  0  0  0  0  0  0  0  0  0
    6.6026   -2.9481   -5.2327 H   0  0  0  0  0  0  0  0  0  0  0  0
    7.5408   -4.7921   -3.9192 H   0  0  0  0  0  0  0  0  0  0  0  0
  2 26  1  0  0  0  0
 27 28  4  0  0  0  0
 30 31  4  0  0  0  0
 29 30  4  0  0  0  0
 28 29  4  0  0  0  0
 26 31  4  0  0  0  0
  3  4  4  0  0  0  0
 26 27  4  0  0  0  0
  2  7  4  0  0  0  0
  5  6  4  0  0  0  0
 15 17  1  0  0  0  0
  6  7  4  0  0  0  0
  4  5  4  0  0  0  0
  2  3  4  0  0  0  0
 29 34  1  0  0  0  0
 28 33  1  0  0  0  0
 30 35  1  0  0  0  0
 31 36  1  0  0  0  0
 27 32  1  0  0  0  0
  5 25  1  0  0  0  0
  7 12  1  0  0  0  0
  4  9  1  0  0  0  0
  6 11  1  0  0  0  0
  3  8  1  0  0  0  0
 17 24  1  0  0  0  0
 15 23  1  0  0  0  0
 15 22  1  0  0  0  0
 18 19  1  0  0  0  0
 14 21  1  0  0  0  0
 10 17  1  0  0  0  0
 16 18  1  0  0  0  0
 14 20  1  0  0  0  0
 14 15  1  0  0  0  0
 17 18  1  0  0  0  0
  1 13  1  0  0  0  0
  1  4  1  0  0  0  0
  1  5  1  0  0  0  0
  1 14  1  0  0  0  0
  1  2  1  0  0  0  0
  1  3  1  0  0  0  0
  1  6  1  0  0  0  0
  1  7  1  0  0  0  0
  1 18  1  0  0  0  0
M  END
$$$$
