compound_80
  GFN2-xTB geometry (ORCA XTB2, DDCOSMO(water))

 34 42  0  0  0  0  0  0  0  0999 V2000
   -1.0546   -1.0928    0.7571 Ru  0  0  0  0  0  0  0  0  0  0  0  0
   -0.2941   -0.5445   -1.3426 C   0  0  0  0  0  0  0  0  0  0  0  0
   -1.5486    0.0622   -1.1738 C   0  0  0  0  0  0  0  0  0  0  0  0
   -1.7731    0.9579   -0.0953 C   0  0  0  0  0  0  0  0  0  0  0  0
   -0.7577    1.1958    0.8356 C   0  0  0  0  0  0  0  0  0  0  0  0
    0.5051    0.5532    0.6923 C   0  0  0  0  0  0  0  0  0  0  0  0
    0.7425   -0.2893   -0.4069 C   0  0  0  0  0  0  0  0  0  0  0  0
   -2.3243   -0.0818   -1.9182 H   0  0  0  0  0  0  0  0  0  0  0  0
   -2.7133    1.4926   -0.0308 H   0  0  0  0  0  0  0  0  0  0  0  0
   -0.9079    1.9195    1.6288 H   0  0  0  0  0  0  0  0  0  0  0  0
    1.3129    0.7967    1.3735 H   0  0  0  0  0  0  0  0  0  0  0  0
   -3.2188   -2.0634    0.9130 Cl  0  0  0  0  0  0  0  0  0  0  0  0
   -0.0965   -1.1461   -2.2224 H   0  0  0  0  0  0  0  0  0  0  0  0
   -0.0278   -6.1249    1.6326 C   0  0  0  0  0  0  0  0  0  0  0  0
   -0.4448   -4.9679    2.3143 C   0  0  0  0  0  0  0  0  0  0  0  0
   -0.8774   -5.4566    3.5815 C   0  0  0  0  0  0  0  0  0  0  0  0
   -0.7393   -6.7627    3.6615 N   0  0  0  0  0  0  0  0  0  0  0  0
   -0.2084   -7.1343    2.4617 N   0  0  0  0  0  0  0  0  0  0  0  0
   -1.3957   -4.6122    4.5248 N   0  0  0  0  0  0  0  0  0  0  0  0
   -1.4977   -3.2781    4.3060 C   0  0  0  0  0  0  0  0  0  0  0  0
   -1.9826   -2.4859    5.0904 O   0  0  0  0  0  0  0  0  0  0  0  0
   -0.9858   -2.8165    3.0870 N   0  0  0  0  0  0  0  0  0  0  0  0
   -0.5677   -3.5936    2.0252 C   0  0  0  0  0  0  0  0  0  0  0  0
   -1.7612   -4.9862    5.3910 H   0  0  0  0  0  0  0  0  0  0  0  0
   -0.3253   -2.9669    0.9132 N   0  0  0  0  0  0  0  0  0  0  0  0
   -0.2827   -0.9550    3.3252 H   0  0  0  0  0  0  0  0  0  0  0  0
    0.0862   -8.5166    2.2239 C   0  0  0  0  0  0  0  0  0  0  0  0
    1.7305   -0.7032   -0.5733 H   0  0  0  0  0  0  0  0  0  0  0  0
   -0.8221   -9.1116    2.3172 H   0  0  0  0  0  0  0  0  0  0  0  0
    0.8079   -8.8727    2.9587 H   0  0  0  0  0  0  0  0  0  0  0  0
   -1.0664   -1.4256    2.8401 N   0  0  0  0  0  0  0  0  0  0  0  0
    0.4947   -8.6179    1.2223 H   0  0  0  0  0  0  0  0  0  0  0  0
    0.0054   -3.5524    0.1480 H   0  0  0  0  0  0  0  0  0  0  0  0
   -1.9312   -1.0795    3.2893 H   0  0  0  0  0  0  0  0  0  0  0  0
 15 16  1  0  0  0  0
 14 18  1  0  0  0  0
 23 25  2  0  0  0  0
 17 18  1  0  0  0  0
 19 20  1  0  0  0  0
  4  5  4  0  0  0  0
  2  3  4  0  0  0  0
 16 19  1  0  0  0  0
  6  7  4  0  0  0  0
 14 15  2  0  0  0  0
 15 23  1  0  0  0  0
 22 23  1  0  0  0  0
  2  7  4  0  0  0  0
  3  4  4  0  0  0  0
  5  6  4  0  0  0  0
 20 22  1  0  0  0  0
 22 31  1  0  0  0  0
 19 24  1  0  0  0  0
  4  9  1  0  0  0  0
  7 28  1  0  0  0  0
  2 13  1  0  0  0  0
  5 10  1  0  0  0  0
  6 11  1  0  0  0  0
  3  8  1  0  0  0  0
 27 32  1  0  0  0  0
 27 30  1  0  0  0  0
 27 29  1  0  0  0  0
 25 33  1  0  0  0  0
 18 27  1  0  0  0  0
 31 34  1  0  0  0  0
 26 31  1  0  0  0  0
 20 21  2  0  0  0  0
 16 17  2  0  0  0  0
  1  2  1  0  0  0  0
  1  3  1  0  0  0  0
  1  4  1  0  0  0  0
  1  5  1  0  0  0  0
  1  6  1  0  0  0  0
  1  7  1  0  0  0  0
  1 12  1  0  0  0  0
  1 25  1  0  0  0  0
  1 31  1  0  0  0  0
M  END
$$$$
