compound_50
  GFN2-xTB geometry (ORCA XTB2, DDCOSMO(water))

 56 64  0  0  0  0  0  0  0  0999 V2000
   -1.1063   -1.0507   -2.1215 C   0  0  0  0  0  0  0  0  0  0  0  0
   -1.2563   -0.7850   -0.7390 C   0  0  0  0  0  0  0  0  0  0  0  0
   -0.1859   -1.1680    0.1132 C   0  0  0  0  0  0  0  0  0  0  0  0
    0.9721   -1.7380   -0.4553 C   0  0  0  0  0  0  0  0  0  0  0  0
    1.1193   -1.9885   -1.8593 C   0  0  0  0  0  0  0  0  0  0  0  0
    0.0470   -1.6505   -2.6632 C   0  0  0  0  0  0  0  0  0  0  0  0
    4.5101   -3.4173    0.6059 H   0  0  0  0  0  0  0  0  0  0  0  0
    5.7963   -4.2845   -1.3006 H   0  0  0  0  0  0  0  0  0  0  0  0
   -1.3286   -0.4398    3.0926 H   0  0  0  0  0  0  0  0  0  0  0  0
    5.0650   -4.2079   -3.8277 O   0  0  0  0  0  0  0  0  0  0  0  0
   -2.3900   -0.2263   -0.1302 C   0  0  0  0  0  0  0  0  0  0  0  0
   -2.3690   -0.1024    1.2404 C   0  0  0  0  0  0  0  0  0  0  0  0
   -1.2963   -0.5328    2.0160 C   0  0  0  0  0  0  0  0  0  0  0  0
   -0.2226   -1.0746    1.4566 N   0  0  0  0  0  0  0  0  0  0  0  0
   -3.2404    0.0769   -0.7186 H   0  0  0  0  0  0  0  0  0  0  0  0
   -3.4329    0.4350    1.8811 F   0  0  0  0  0  0  0  0  0  0  0  0
    2.3955   -2.6306   -1.9680 C   0  0  0  0  0  0  0  0  0  0  0  0
    2.8975   -2.7199   -0.6362 C   0  0  0  0  0  0  0  0  0  0  0  0
    2.0103   -2.1624    0.2637 N   0  0  0  0  0  0  0  0  0  0  0  0
    2.7444   -3.0675   -4.0460 H   0  0  0  0  0  0  0  0  0  0  0  0
    4.1262   -3.3192   -0.3950 C   0  0  0  0  0  0  0  0  0  0  0  0
    4.8402   -3.8113   -1.4680 C   0  0  0  0  0  0  0  0  0  0  0  0
    4.3547   -3.7196   -2.7771 C   0  0  0  0  0  0  0  0  0  0  0  0
    3.1247   -3.1281   -3.0371 C   0  0  0  0  0  0  0  0  0  0  0  0
   -0.1903   -1.8536   -4.1034 C   0  0  0  0  0  0  0  0  0  0  0  0
   -1.4464   -1.3550   -4.3424 N   0  0  0  0  0  0  0  0  0  0  0  0
   -2.0651   -0.8729   -3.1835 C   0  0  0  0  0  0  0  0  0  0  0  0
   -3.1993   -0.4168   -3.1702 O   0  0  0  0  0  0  0  0  0  0  0  0
    0.5299   -2.3574   -4.9467 O   0  0  0  0  0  0  0  0  0  0  0  0
   -1.8990   -1.3768   -5.2439 H   0  0  0  0  0  0  0  0  0  0  0  0
    1.2753   -2.2554    2.2268 Ru  0  0  0  0  0  0  0  0  0  0  0  0
   -0.4664   -4.0792    0.5230 C   0  0  0  0  0  0  0  0  0  0  0  0
   -1.0993   -4.3247   -0.4604 O   0  0  0  0  0  0  0  0  0  0  0  0
    2.5533   -0.4890    3.0166 S   0  0  0  0  0  0  0  0  0  0  0  0
    2.3876   -0.5746    4.8689 C   0  0  0  0  0  0  0  0  0  0  0  0
    1.0430   -1.0860    5.3372 C   0  0  0  0  0  0  0  0  0  0  0  0
    0.2416   -2.4107    4.3098 S   0  0  0  0  0  0  0  0  0  0  0  0
    0.9843   -3.9545    4.9803 C   0  0  0  0  0  0  0  0  0  0  0  0
    2.4678   -4.1019    4.7488 C   0  0  0  0  0  0  0  0  0  0  0  0
    2.9683   -3.7289    2.9912 S   0  0  0  0  0  0  0  0  0  0  0  0
    4.4211   -2.6049    3.3201 C   0  0  0  0  0  0  0  0  0  0  0  0
    4.2428   -1.1897    2.8159 C   0  0  0  0  0  0  0  0  0  0  0  0
    4.9247   -0.5121    3.3289 H   0  0  0  0  0  0  0  0  0  0  0  0
    2.5194    0.4533    5.2050 H   0  0  0  0  0  0  0  0  0  0  0  0
    3.2097   -1.1769    5.2377 H   0  0  0  0  0  0  0  0  0  0  0  0
    0.2968   -0.2926    5.3165 H   0  0  0  0  0  0  0  0  0  0  0  0
    1.1095   -1.4867    6.3467 H   0  0  0  0  0  0  0  0  0  0  0  0
    0.4155   -4.7350    4.4695 H   0  0  0  0  0  0  0  0  0  0  0  0
    0.7555   -3.9753    6.0454 H   0  0  0  0  0  0  0  0  0  0  0  0
    2.7631   -5.1383    4.9110 H   0  0  0  0  0  0  0  0  0  0  0  0
    3.0271   -3.4558    5.4190 H   0  0  0  0  0  0  0  0  0  0  0  0
    4.6141   -2.6387    4.3886 H   0  0  0  0  0  0  0  0  0  0  0  0
    5.2620   -3.0708    2.8081 H   0  0  0  0  0  0  0  0  0  0  0  0
    4.4037   -1.1210    1.7390 H   0  0  0  0  0  0  0  0  0  0  0  0
    0.1263   -3.9170    1.5212 N   0  0  0  0  0  0  0  0  0  0  0  0
    5.8968   -4.5884   -3.5028 H   0  0  0  0  0  0  0  0  0  0  0  0
  2  3  1  0  0  0  0
  5 17  1  0  0  0  0
  1 27  1  0  0  0  0
 10 23  1  0  0  0  0
  6 25  1  0  0  0  0
  4 19  1  0  0  0  0
 12 16  1  0  0  0  0
 11 12  4  0  0  0  0
 21 22  4  0  0  0  0
  5  6  4  0  0  0  0
 17 24  4  0  0  0  0
 18 21  4  0  0  0  0
 23 24  4  0  0  0  0
 13 14  4  0  0  0  0
 12 13  4  0  0  0  0
 38 39  1  0  0  0  0
 22 23  4  0  0  0  0
 35 36  1  0  0  0  0
 41 42  1  0  0  0  0
  2 11  4  0  0  0  0
  1  6  4  0  0  0  0
 25 26  1  0  0  0  0
  3  4  4  0  0  0  0
  3 14  4  0  0  0  0
  1  2  4  0  0  0  0
 18 19  1  0  0  0  0
 17 18  4  0  0  0  0
  4  5  4  0  0  0  0
  7 21  1  0  0  0  0
 26 27  1  0  0  0  0
 11 15  1  0  0  0  0
 26 30  1  0  0  0  0
  8 22  1  0  0  0  0
 20 24  1  0  0  0  0
  9 13  1  0  0  0  0
 10 56  1  0  0  0  0
 35 45  1  0  0  0  0
 39 51  1  0  0  0  0
 41 52  1  0  0  0  0
 37 38  1  0  0  0  0
 34 42  1  0  0  0  0
 36 47  1  0  0  0  0
 41 53  1  0  0  0  0
 36 46  1  0  0  0  0
 35 44  1  0  0  0  0
 38 49  1  0  0  0  0
 39 50  1  0  0  0  0
 42 43  1  0  0  0  0
 42 54  1  0  0  0  0
 38 48  1  0  0  0  0
 36 37  1  0  0  0  0
 34 35  1  0  0  0  0
 39 40  1  0  0  0  0
 40 41  1  0  0  0  0
 32 55  2  0  0  0  0
 32 33  2  0  0  0  0
 25 29  2  0  0  0  0
 27 28  2  0  0  0  0
 31 40  1  0  0  0  0
 31 55  1  0  0  0  0
 31 14  1  0  0  0  0
 31 19  1  0  0  0  0
 31 34  1  0  0  0  0
 31 37  1  0  0  0  0
M  END
$$$$
