compound_4
  GFN2-xTB geometry (ORCA XTB2, DDCOSMO(water))

 54 62  0  0  0  0  0  0  0  0999 V2000
   -0.9005   -0.6700   -2.1178 C   0  0  0  0  0  0  0  0  0  0  0  0
   -1.2342   -0.7471   -0.7400 C   0  0  0  0  0  0  0  0  0  0  0  0
   -0.3145   -1.4233    0.1014 C   0  0  0  0  0  0  0  0  0  0  0  0
    0.8507   -1.9781   -0.4612 C   0  0  0  0  0  0  0  0  0  0  0  0
    1.1771   -1.9047   -1.8501 C   0  0  0  0  0  0  0  0  0  0  0  0
    0.2706   -1.2340   -2.6557 C   0  0  0  0  0  0  0  0  0  0  0  0
    4.0799   -4.1735    0.6062 H   0  0  0  0  0  0  0  0  0  0  0  0
    5.5962   -4.6679   -1.2805 H   0  0  0  0  0  0  0  0  0  0  0  0
   -1.7209   -1.2404    3.0379 H   0  0  0  0  0  0  0  0  0  0  0  0
    5.0906   -3.8859   -3.5455 H   0  0  0  0  0  0  0  0  0  0  0  0
   -2.3843   -0.2262   -0.1268 C   0  0  0  0  0  0  0  0  0  0  0  0
   -2.5453   -0.4045    1.2308 C   0  0  0  0  0  0  0  0  0  0  0  0
   -1.5860   -1.0894    1.9747 C   0  0  0  0  0  0  0  0  0  0  0  0
   -0.4852   -1.5925    1.4306 N   0  0  0  0  0  0  0  0  0  0  0  0
   -3.1149    0.2942   -0.7259 H   0  0  0  0  0  0  0  0  0  0  0  0
   -3.4178   -0.0199    1.7322 H   0  0  0  0  0  0  0  0  0  0  0  0
    2.4175   -2.6131   -1.9542 C   0  0  0  0  0  0  0  0  0  0  0  0
    2.7221   -3.0578   -0.6316 C   0  0  0  0  0  0  0  0  0  0  0  0
    1.7563   -2.6434    0.2599 N   0  0  0  0  0  0  0  0  0  0  0  0
    3.0367   -2.5749   -4.0047 H   0  0  0  0  0  0  0  0  0  0  0  0
    3.8679   -3.8041   -0.3857 C   0  0  0  0  0  0  0  0  0  0  0  0
    4.7026   -4.0874   -1.4489 C   0  0  0  0  0  0  0  0  0  0  0  0
    4.4149   -3.6449   -2.7395 C   0  0  0  0  0  0  0  0  0  0  0  0
    3.2743   -2.9126   -3.0060 C   0  0  0  0  0  0  0  0  0  0  0  0
    0.2722   -0.9712   -4.1055 C   0  0  0  0  0  0  0  0  0  0  0  0
   -0.8847   -0.2755   -4.3531 N   0  0  0  0  0  0  0  0  0  0  0  0
   -1.6427   -0.0589   -3.1965 C   0  0  0  0  0  0  0  0  0  0  0  0
   -2.7074    0.5406   -3.1994 O   0  0  0  0  0  0  0  0  0  0  0  0
    1.0951   -1.2765   -4.9505 O   0  0  0  0  0  0  0  0  0  0  0  0
   -1.1658    0.0427   -5.2681 H   0  0  0  0  0  0  0  0  0  0  0  0
    1.1010   -2.6040    2.2521 Ru  0  0  0  0  0  0  0  0  0  0  0  0
    0.1510   -4.3036    1.9376 C   0  0  0  0  0  0  0  0  0  0  0  0
   -0.4152   -5.2796    1.6852 N   0  0  0  0  0  0  0  0  0  0  0  0
    2.2977   -0.5864    2.6483 S   0  0  0  0  0  0  0  0  0  0  0  0
    2.2564   -0.3967    4.4957 C   0  0  0  0  0  0  0  0  0  0  0  0
    0.9684   -0.8968    5.1134 C   0  0  0  0  0  0  0  0  0  0  0  0
    0.2664   -2.4636    4.4232 S   0  0  0  0  0  0  0  0  0  0  0  0
    1.2150   -3.7717    5.2974 C   0  0  0  0  0  0  0  0  0  0  0  0
    2.6800   -3.8525    4.9412 C   0  0  0  0  0  0  0  0  0  0  0  0
    3.0001   -3.7476    3.1066 S   0  0  0  0  0  0  0  0  0  0  0  0
    4.3669   -2.4891    3.0835 C   0  0  0  0  0  0  0  0  0  0  0  0
    4.0149   -1.1792    2.4065 C   0  0  0  0  0  0  0  0  0  0  0  0
    4.6751   -0.3830    2.7499 H   0  0  0  0  0  0  0  0  0  0  0  0
    2.3541    0.6733    4.6781 H   0  0  0  0  0  0  0  0  0  0  0  0
    3.1276   -0.9102    4.8878 H   0  0  0  0  0  0  0  0  0  0  0  0
    0.1609   -0.1835    4.9479 H   0  0  0  0  0  0  0  0  0  0  0  0
    1.0881   -1.0621    6.1825 H   0  0  0  0  0  0  0  0  0  0  0  0
    0.6835   -4.6818    5.0100 H   0  0  0  0  0  0  0  0  0  0  0  0
    1.0854   -3.5939    6.3644 H   0  0  0  0  0  0  0  0  0  0  0  0
    3.0777   -4.8231    5.2362 H   0  0  0  0  0  0  0  0  0  0  0  0
    3.2434   -3.0643    5.4321 H   0  0  0  0  0  0  0  0  0  0  0  0
    4.6870   -2.3469    4.1120 H   0  0  0  0  0  0  0  0  0  0  0  0
    5.1760   -2.9674    2.5326 H   0  0  0  0  0  0  0  0  0  0  0  0
    4.0901   -1.2638    1.3201 H   0  0  0  0  0  0  0  0  0  0  0  0
  1  2  1  0  0  0  0
  5 17  1  0  0  0  0
  1 27  1  0  0  0  0
  6 25  1  0  0  0  0
  4 19  1  0  0  0  0
 11 12  2  0  0  0  0
 21 22  4  0  0  0  0
 23 24  4  0  0  0  0
  5  6  1  0  0  0  0
  3 14  1  0  0  0  0
 17 24  4  0  0  0  0
 18 21  4  0  0  0  0
 13 14  2  0  0  0  0
 12 13  1  0  0  0  0
 22 23  4  0  0  0  0
 38 39  1  0  0  0  0
 35 36  1  0  0  0  0
  2 11  1  0  0  0  0
 41 42  1  0  0  0  0
  1  6  2  0  0  0  0
  3  4  1  0  0  0  0
 25 26  1  0  0  0  0
 18 19  1  0  0  0  0
  2  3  2  0  0  0  0
 17 18  4  0  0  0  0
  4  5  2  0  0  0  0
 12 16  1  0  0  0  0
 26 27  1  0  0  0  0
 11 15  1  0  0  0  0
  8 22  1  0  0  0  0
 10 23  1  0  0  0  0
 26 30  1  0  0  0  0
  7 21  1  0  0  0  0
 20 24  1  0  0  0  0
  9 13  1  0  0  0  0
 34 42  1  0  0  0  0
 35 45  1  0  0  0  0
 37 38  1  0  0  0  0
 39 51  1  0  0  0  0
 41 52  1  0  0  0  0
 36 47  1  0  0  0  0
 38 49  1  0  0  0  0
 41 53  1  0  0  0  0
 39 50  1  0  0  0  0
 35 44  1  0  0  0  0
 42 43  1  0  0  0  0
 36 46  1  0  0  0  0
 42 54  1  0  0  0  0
 38 48  1  0  0  0  0
 36 37  1  0  0  0  0
 34 35  1  0  0  0  0
 40 41  1  0  0  0  0
 39 40  1  0  0  0  0
 32 33  3  0  0  0  0
 25 29  2  0  0  0  0
 27 28  2  0  0  0  0
 31 32  1  0  0  0  0
 31 40  1  0  0  0  0
 31 14  1  0  0  0  0
 31 19  1  0  0  0  0
 31 34  1  0  0  0  0
 31 37  1  0  0  0  0
M  END
$$$$
