compound_87
  GFN2-xTB geometry (ORCA XTB2, DDCOSMO(water))

 38 45  0  0  0  0  0  0  0  0999 V2000
   -1.0147   -0.5873    0.8051 Ru  0  0  0  0  0  0  0  0  0  0  0  0
    0.0091   -0.3371   -1.2024 C   0  0  0  0  0  0  0  0  0  0  0  0
   -0.9157    0.7154   -1.0211 C   0  0  0  0  0  0  0  0  0  0  0  0
   -0.8131    1.6000    0.0867 C   0  0  0  0  0  0  0  0  0  0  0  0
    0.1924    1.4242    1.0514 C   0  0  0  0  0  0  0  0  0  0  0  0
    1.1288    0.3614    0.8710 C   0  0  0  0  0  0  0  0  0  0  0  0
    1.0504   -0.4844   -0.2368 C   0  0  0  0  0  0  0  0  0  0  0  0
   -1.6725    0.9055   -1.7730 H   0  0  0  0  0  0  0  0  0  0  0  0
   -1.9422   -0.7499   -3.3084 H   0  0  0  0  0  0  0  0  0  0  0  0
   -1.4851    2.4485    0.1571 H   0  0  0  0  0  0  0  0  0  0  0  0
    1.9451    0.2597    1.5774 H   0  0  0  0  0  0  0  0  0  0  0  0
    0.2076    0.4616   -3.8029 H   0  0  0  0  0  0  0  0  0  0  0  0
    1.3287    2.8768    2.1064 H   0  0  0  0  0  0  0  0  0  0  0  0
    0.7263   -0.4631   -3.5650 C   0  0  0  0  0  0  0  0  0  0  0  0
   -1.3772   -2.3926   -3.5952 H   0  0  0  0  0  0  0  0  0  0  0  0
    1.8115   -1.2417   -0.3911 H   0  0  0  0  0  0  0  0  0  0  0  0
    0.3641    2.3784    2.1909 C   0  0  0  0  0  0  0  0  0  0  0  0
    0.3464    1.8397    3.1392 H   0  0  0  0  0  0  0  0  0  0  0  0
   -0.4272    3.1226    2.2015 H   0  0  0  0  0  0  0  0  0  0  0  0
   -0.0019   -1.2045   -2.4375 C   0  0  0  0  0  0  0  0  0  0  0  0
    0.5497   -2.1218   -2.2042 H   0  0  0  0  0  0  0  0  0  0  0  0
   -1.9927   -1.9378   -2.0028 H   0  0  0  0  0  0  0  0  0  0  0  0
    1.7453   -0.2260   -3.2706 H   0  0  0  0  0  0  0  0  0  0  0  0
    0.7543   -1.0879   -4.4527 H   0  0  0  0  0  0  0  0  0  0  0  0
   -1.4190   -1.5910   -2.8639 C   0  0  0  0  0  0  0  0  0  0  0  0
   -1.2207   -0.8911    3.2131 Cl  0  0  0  0  0  0  0  0  0  0  0  0
   -1.0928   -2.7034    0.7003 O   0  0  0  0  0  0  0  0  0  0  0  0
   -2.2760   -3.3049    0.6026 N   0  0  0  0  0  0  0  0  0  0  0  0
   -3.4298   -2.6004    0.5389 C   0  0  0  0  0  0  0  0  0  0  0  0
   -4.6369   -3.2900    0.3948 C   0  0  0  0  0  0  0  0  0  0  0  0
   -4.6504   -4.6630    0.3336 C   0  0  0  0  0  0  0  0  0  0  0  0
   -3.4417   -5.3556    0.4144 C   0  0  0  0  0  0  0  0  0  0  0  0
   -2.2752   -4.6506    0.5472 C   0  0  0  0  0  0  0  0  0  0  0  0
   -1.2977   -5.1020    0.6134 H   0  0  0  0  0  0  0  0  0  0  0  0
   -5.5344   -2.6976    0.3377 H   0  0  0  0  0  0  0  0  0  0  0  0
   -5.5814   -5.1931    0.2255 H   0  0  0  0  0  0  0  0  0  0  0  0
   -3.4062   -6.4303    0.3733 H   0  0  0  0  0  0  0  0  0  0  0  0
   -3.3774   -0.8776    0.6195 S   0  0  0  0  0  0  0  0  0  0  0  0
 32 33  2  0  0  0  0
 30 31  2  0  0  0  0
 28 33  1  0  0  0  0
  5 17  1  0  0  0  0
 28 29  1  0  0  0  0
 31 32  1  0  0  0  0
  6  7  4  0  0  0  0
 27 28  1  0  0  0  0
 29 30  1  0  0  0  0
  2 20  1  0  0  0  0
  4  5  4  0  0  0  0
  2  3  4  0  0  0  0
 20 25  1  0  0  0  0
 14 20  1  0  0  0  0
  3  4  4  0  0  0  0
  2  7  4  0  0  0  0
  5  6  4  0  0  0  0
 32 37  1  0  0  0  0
 31 36  1  0  0  0  0
 30 35  1  0  0  0  0
 33 34  1  0  0  0  0
  3  8  1  0  0  0  0
  6 11  1  0  0  0  0
  7 16  1  0  0  0  0
  4 10  1  0  0  0  0
  9 25  1  0  0  0  0
 15 25  1  0  0  0  0
 14 24  1  0  0  0  0
 17 19  1  0  0  0  0
 12 14  1  0  0  0  0
 14 23  1  0  0  0  0
 13 17  1  0  0  0  0
 17 18  1  0  0  0  0
 22 25  1  0  0  0  0
 20 21  1  0  0  0  0
 29 38  2  0  0  0  0
  1  2  1  0  0  0  0
  1  3  1  0  0  0  0
  1  4  1  0  0  0  0
  1  5  1  0  0  0  0
  1  6  1  0  0  0  0
  1  7  1  0  0  0  0
  1 26  1  0  0  0  0
  1 27  1  0  0  0  0
  1 38  1  0  0  0  0
M  END
$$$$
