compound_93
  GFN2-xTB geometry (ORCA XTB2, DDCOSMO(water))

 69 74  0  0  0  0  0  0  0  0999 V2000
   -1.7559    0.5763    0.9005 Ru  0  0  0  0  0  0  0  0  0  0  0  0
   -1.1102    0.3846   -1.6255 C   0  0  0  0  0  0  0  0  0  0  0  0
   -0.7723    1.6011   -1.0047 C   0  0  0  0  0  0  0  0  0  0  0  0
    0.1295    1.6213    0.0842 C   0  0  0  0  0  0  0  0  0  0  0  0
    0.7525    0.4351    0.5533 C   0  0  0  0  0  0  0  0  0  0  0  0
    0.3487   -0.7737   -0.0286 C   0  0  0  0  0  0  0  0  0  0  0  0
   -0.5684   -0.7935   -1.0887 C   0  0  0  0  0  0  0  0  0  0  0  0
   -1.2997    0.3137   -3.7361 H   0  0  0  0  0  0  0  0  0  0  0  0
    1.8762    0.5391    1.5556 C   0  0  0  0  0  0  0  0  0  0  0  0
   -3.2991   -0.5623    6.0251 C   0  0  0  0  0  0  0  0  0  0  0  0
    3.9976    0.9350    1.4809 H   0  0  0  0  0  0  0  0  0  0  0  0
   -2.1809   -0.2853    5.2291 C   0  0  0  0  0  0  0  0  0  0  0  0
   -0.9938    0.1400    5.8443 C   0  0  0  0  0  0  0  0  0  0  0  0
   -0.9309    0.2941    7.2129 C   0  0  0  0  0  0  0  0  0  0  0  0
   -2.0459    0.0187    7.9921 C   0  0  0  0  0  0  0  0  0  0  0  0
   -3.2237   -0.4100    7.3954 C   0  0  0  0  0  0  0  0  0  0  0  0
    3.4001    0.0032    0.1083 H   0  0  0  0  0  0  0  0  0  0  0  0
    1.6675    1.3916    2.2091 H   0  0  0  0  0  0  0  0  0  0  0  0
    3.1720    0.8251    0.7834 C   0  0  0  0  0  0  0  0  0  0  0  0
    0.4995    2.5779    0.4445 H   0  0  0  0  0  0  0  0  0  0  0  0
    2.7386   -0.4979    3.2307 H   0  0  0  0  0  0  0  0  0  0  0  0
    2.4181   -1.5449    1.8580 H   0  0  0  0  0  0  0  0  0  0  0  0
   -2.5753    1.2365   -2.9376 H   0  0  0  0  0  0  0  0  0  0  0  0
    1.0796   -0.9836    2.8697 H   0  0  0  0  0  0  0  0  0  0  0  0
    0.7957   -1.7063    0.2849 H   0  0  0  0  0  0  0  0  0  0  0  0
    2.0343   -0.7032    2.4293 C   0  0  0  0  0  0  0  0  0  0  0  0
   -2.5847   -0.5341   -2.8800 H   0  0  0  0  0  0  0  0  0  0  0  0
   -1.1108    2.5320   -1.4454 H   0  0  0  0  0  0  0  0  0  0  0  0
    3.0855    1.7368    0.1990 H   0  0  0  0  0  0  0  0  0  0  0  0
   -0.7972   -1.7390   -1.5643 H   0  0  0  0  0  0  0  0  0  0  0  0
   -4.0866   -0.6259    8.0060 H   0  0  0  0  0  0  0  0  0  0  0  0
   -1.9506    0.3504   -2.8621 C   0  0  0  0  0  0  0  0  0  0  0  0
   -0.0159    0.6257    7.6777 H   0  0  0  0  0  0  0  0  0  0  0  0
   -1.9982    0.1359    9.0636 H   0  0  0  0  0  0  0  0  0  0  0  0
   -4.7182    4.8315    2.0012 H   0  0  0  0  0  0  0  0  0  0  0  0
   -4.2205   -0.8989    5.5801 H   0  0  0  0  0  0  0  0  0  0  0  0
   -4.0750    6.0342    3.1442 H   0  0  0  0  0  0  0  0  0  0  0  0
   -2.2222    2.5050    2.0775 P   0  0  0  0  0  0  0  0  0  0  0  0
   -3.7276    2.7177    3.1613 C   0  0  0  0  0  0  0  0  0  0  0  0
   -3.7797    4.0576    3.6964 N   0  0  0  0  0  0  0  0  0  0  0  0
   -2.6311    4.3450    4.5438 C   0  0  0  0  0  0  0  0  0  0  0  0
   -1.3927    4.4464    3.7931 N   0  0  0  0  0  0  0  0  0  0  0  0
   -0.9577    3.1726    3.2721 C   0  0  0  0  0  0  0  0  0  0  0  0
   -2.4406    4.0349    1.0411 C   0  0  0  0  0  0  0  0  0  0  0  0
   -2.6676    5.1935    1.8727 N   0  0  0  0  0  0  0  0  0  0  0  0
   -1.5406    5.4536    2.7564 C   0  0  0  0  0  0  0  0  0  0  0  0
   -3.6806    2.0178    4.0011 H   0  0  0  0  0  0  0  0  0  0  0  0
   -4.6273    2.5178    2.5676 H   0  0  0  0  0  0  0  0  0  0  0  0
   -0.6250    5.5032    2.1647 H   0  0  0  0  0  0  0  0  0  0  0  0
   -2.5358    3.5605    5.2975 H   0  0  0  0  0  0  0  0  0  0  0  0
   -2.8103    5.3013    5.0420 H   0  0  0  0  0  0  0  0  0  0  0  0
    0.0002    3.3021    2.7607 H   0  0  0  0  0  0  0  0  0  0  0  0
   -0.8297    2.4663    4.0976 H   0  0  0  0  0  0  0  0  0  0  0  0
   -3.2959    3.8879    0.3721 H   0  0  0  0  0  0  0  0  0  0  0  0
   -1.5418    4.2036    0.4405 H   0  0  0  0  0  0  0  0  0  0  0  0
   -1.7056    6.4197    3.2401 H   0  0  0  0  0  0  0  0  0  0  0  0
   -3.8815    5.0728    2.6609 C   0  0  0  0  0  0  0  0  0  0  0  0
   -0.1341    0.3419    5.2241 H   0  0  0  0  0  0  0  0  0  0  0  0
   -2.1935   -0.4121    3.7769 C   0  0  0  0  0  0  0  0  0  0  0  0
   -3.4897   -0.7671    3.0633 C   0  0  0  0  0  0  0  0  0  0  0  0
   -3.2885   -0.6477    1.5570 C   0  0  0  0  0  0  0  0  0  0  0  0
   -1.1781   -0.2060    3.1053 O   0  0  0  0  0  0  0  0  0  0  0  0
   -3.8177    0.2780    0.8451 O   0  0  0  0  0  0  0  0  0  0  0  0
   -3.1185   -1.9833    0.8480 C   0  0  0  0  0  0  0  0  0  0  0  0
   -4.0370   -2.9142    1.1725 F   0  0  0  0  0  0  0  0  0  0  0  0
   -1.9172   -2.5515    1.1081 F   0  0  0  0  0  0  0  0  0  0  0  0
   -3.1861   -1.8342   -0.4874 F   0  0  0  0  0  0  0  0  0  0  0  0
   -4.2927   -0.0896    3.3602 H   0  0  0  0  0  0  0  0  0  0  0  0
   -3.7792   -1.7876    3.3270 H   0  0  0  0  0  0  0  0  0  0  0  0
 12 59  1  0  0  0  0
 64 67  1  0  0  0  0
 64 65  1  0  0  0  0
 64 66  1  0  0  0  0
 13 14  4  0  0  0  0
 10 16  4  0  0  0  0
  2 32  1  0  0  0  0
 14 15  4  0  0  0  0
 15 16  4  0  0  0  0
  5  9  1  0  0  0  0
 10 12  4  0  0  0  0
  5  6  4  0  0  0  0
  6  7  4  0  0  0  0
 12 13  4  0  0  0  0
  2  7  4  0  0  0  0
  2  3  4  0  0  0  0
 59 60  1  0  0  0  0
 61 64  1  0  0  0  0
 60 61  1  0  0  0  0
  3  4  4  0  0  0  0
  9 26  1  0  0  0  0
  4  5  4  0  0  0  0
 38 44  1  0  0  0  0
 38 43  1  0  0  0  0
  9 19  1  0  0  0  0
 38 39  1  0  0  0  0
 10 36  1  0  0  0  0
 14 33  1  0  0  0  0
 16 31  1  0  0  0  0
 15 34  1  0  0  0  0
 13 58  1  0  0  0  0
  6 25  1  0  0  0  0
  7 30  1  0  0  0  0
  3 28  1  0  0  0  0
 19 29  1  0  0  0  0
 11 19  1  0  0  0  0
 21 26  1  0  0  0  0
 23 32  1  0  0  0  0
  4 20  1  0  0  0  0
 22 26  1  0  0  0  0
 17 19  1  0  0  0  0
 24 26  1  0  0  0  0
 27 32  1  0  0  0  0
  8 32  1  0  0  0  0
 46 49  1  0  0  0  0
 60 68  1  0  0  0  0
 41 50  1  0  0  0  0
 35 57  1  0  0  0  0
 46 56  1  0  0  0  0
 60 69  1  0  0  0  0
 41 51  1  0  0  0  0
 37 57  1  0  0  0  0
 43 52  1  0  0  0  0
 43 53  1  0  0  0  0
 44 55  1  0  0  0  0
 39 47  1  0  0  0  0
  9 18  1  0  0  0  0
 44 54  1  0  0  0  0
 39 48  1  0  0  0  0
 42 43  1  0  0  0  0
 39 40  1  0  0  0  0
 44 45  1  0  0  0  0
 41 42  1  0  0  0  0
 45 57  1  0  0  0  0
 42 46  1  0  0  0  0
 40 57  1  0  0  0  0
 45 46  1  0  0  0  0
 40 41  1  0  0  0  0
 59 62  2  0  0  0  0
 61 63  2  0  0  0  0
  1 62  1  0  0  0  0
  1 63  1  0  0  0  0
  1  3  1  0  0  0  0
  1 38  1  0  0  0  0
M  END
$$$$
