compound_77
  GFN2-xTB geometry (ORCA XTB2, DDCOSMO(water))

 59 68  0  0  0  0  0  0  0  0999 V2000
   -0.9108   -0.9055    0.5395 Ru  0  0  0  0  0  0  0  0  0  0  0  0
   -0.0773   -0.1448   -1.4461 C   0  0  0  0  0  0  0  0  0  0  0  0
   -1.2970    0.5478   -1.2204 C   0  0  0  0  0  0  0  0  0  0  0  0
   -1.5216    1.2539   -0.0323 C   0  0  0  0  0  0  0  0  0  0  0  0
   -0.4852    1.2465    0.9497 C   0  0  0  0  0  0  0  0  0  0  0  0
    0.7430    0.6028    0.7157 C   0  0  0  0  0  0  0  0  0  0  0  0
    0.9687   -0.1008   -0.5035 C   0  0  0  0  0  0  0  0  0  0  0  0
   -2.0431    0.5572   -2.0060 H   0  0  0  0  0  0  0  0  0  0  0  0
    2.7692   -1.0619    0.1350 H   0  0  0  0  0  0  0  0  0  0  0  0
   -0.6193    1.8289    1.8556 H   0  0  0  0  0  0  0  0  0  0  0  0
    1.5502    0.6960    1.4326 H   0  0  0  0  0  0  0  0  0  0  0  0
   -2.4551   -2.5682   -0.3080 Cl  0  0  0  0  0  0  0  0  0  0  0  0
    0.0827   -0.6316   -2.4027 H   0  0  0  0  0  0  0  0  0  0  0  0
    0.9491   -5.1523    2.9519 C   0  0  0  0  0  0  0  0  0  0  0  0
   -0.0809   -4.2242    3.0753 C   0  0  0  0  0  0  0  0  0  0  0  0
   -0.8524   -4.7170    4.1624 C   0  0  0  0  0  0  0  0  0  0  0  0
   -0.3412   -5.8319    4.6443 N   0  0  0  0  0  0  0  0  0  0  0  0
    0.7487   -6.0692    3.8971 N   0  0  0  0  0  0  0  0  0  0  0  0
   -1.9767   -4.0618    4.5862 N   0  0  0  0  0  0  0  0  0  0  0  0
   -2.3978   -2.9160    3.9951 C   0  0  0  0  0  0  0  0  0  0  0  0
   -3.3993   -2.3069    4.3190 O   0  0  0  0  0  0  0  0  0  0  0  0
   -1.5939   -2.4215    2.9598 N   0  0  0  0  0  0  0  0  0  0  0  0
   -0.4901   -3.0383    2.4022 C   0  0  0  0  0  0  0  0  0  0  0  0
   -2.5373   -4.4521    5.3322 H   0  0  0  0  0  0  0  0  0  0  0  0
    0.0572   -2.4651    1.3841 N   0  0  0  0  0  0  0  0  0  0  0  0
   -1.9751   -0.4561    3.0188 H   0  0  0  0  0  0  0  0  0  0  0  0
    1.5668   -7.2264    4.1581 C   0  0  0  0  0  0  0  0  0  0  0  0
   -2.8589    2.2668    1.2718 H   0  0  0  0  0  0  0  0  0  0  0  0
    0.9885   -7.8614    4.8297 H   0  0  0  0  0  0  0  0  0  0  0  0
    2.4799   -6.9137    4.6737 H   0  0  0  0  0  0  0  0  0  0  0  0
   -2.0253   -1.2271    2.3345 N   0  0  0  0  0  0  0  0  0  0  0  0
   -3.0226   -1.3256    2.0892 H   0  0  0  0  0  0  0  0  0  0  0  0
    0.8825   -2.9305    1.0102 H   0  0  0  0  0  0  0  0  0  0  0  0
    2.2975   -0.7233   -0.7835 C   0  0  0  0  0  0  0  0  0  0  0  0
    2.9478    0.0234   -1.2411 H   0  0  0  0  0  0  0  0  0  0  0  0
    2.2029   -1.5564   -1.4756 H   0  0  0  0  0  0  0  0  0  0  0  0
   -2.7768    2.0602    0.2004 C   0  0  0  0  0  0  0  0  0  0  0  0
   -2.6523    3.3990   -0.5362 C   0  0  0  0  0  0  0  0  0  0  0  0
   -4.0361    1.3099   -0.2380 C   0  0  0  0  0  0  0  0  0  0  0  0
   -4.9201    1.8026    0.1574 H   0  0  0  0  0  0  0  0  0  0  0  0
   -4.0222    0.2816    0.1244 H   0  0  0  0  0  0  0  0  0  0  0  0
   -4.1271    1.2863   -1.3216 H   0  0  0  0  0  0  0  0  0  0  0  0
   -1.7806    3.9491   -0.1905 H   0  0  0  0  0  0  0  0  0  0  0  0
   -3.5370    4.0041   -0.3569 H   0  0  0  0  0  0  0  0  0  0  0  0
   -2.5579    3.2398   -1.6082 H   0  0  0  0  0  0  0  0  0  0  0  0
    1.9296   -7.9964    2.8805 C   0  0  0  0  0  0  0  0  0  0  0  0
    3.1240   -7.4408    2.1502 C   0  0  0  0  0  0  0  0  0  0  0  0
    3.2042   -6.1436    1.7103 C   0  0  0  0  0  0  0  0  0  0  0  0
    4.2533   -5.5899    1.0402 C   0  0  0  0  0  0  0  0  0  0  0  0
    5.3430   -6.4147    0.7647 C   0  0  0  0  0  0  0  0  0  0  0  0
    5.3192   -7.7335    1.1810 C   0  0  0  0  0  0  0  0  0  0  0  0
    4.2298   -8.2452    1.8649 C   0  0  0  0  0  0  0  0  0  0  0  0
    1.8267   -5.2691    2.2782 H   0  0  0  0  0  0  0  0  0  0  0  0
    4.2577   -4.5590    0.7241 H   0  0  0  0  0  0  0  0  0  0  0  0
    6.1953   -6.0200    0.2319 H   0  0  0  0  0  0  0  0  0  0  0  0
    6.1634   -8.3748    0.9721 H   0  0  0  0  0  0  0  0  0  0  0  0
    4.2274   -9.2777    2.1838 H   0  0  0  0  0  0  0  0  0  0  0  0
    1.0661   -8.0016    2.2107 H   0  0  0  0  0  0  0  0  0  0  0  0
    2.1415   -9.0290    3.1559 H   0  0  0  0  0  0  0  0  0  0  0  0
 15 23  1  0  0  0  0
 48 49  4  0  0  0  0
 14 18  1  0  0  0  0
 17 18  1  0  0  0  0
 47 48  4  0  0  0  0
 16 17  2  0  0  0  0
 50 51  4  0  0  0  0
 51 52  4  0  0  0  0
  7 34  1  0  0  0  0
 14 15  2  0  0  0  0
 19 20  1  0  0  0  0
 49 50  4  0  0  0  0
 46 47  1  0  0  0  0
 47 52  4  0  0  0  0
  4 37  1  0  0  0  0
  3  4  4  0  0  0  0
 16 19  1  0  0  0  0
  5  6  4  0  0  0  0
  2  7  4  0  0  0  0
 37 39  1  0  0  0  0
 22 23  1  0  0  0  0
  2  3  4  0  0  0  0
 37 38  1  0  0  0  0
 15 16  1  0  0  0  0
 27 46  1  0  0  0  0
  6  7  4  0  0  0  0
  4  5  4  0  0  0  0
 49 54  1  0  0  0  0
 20 22  1  0  0  0  0
 50 55  1  0  0  0  0
 51 56  1  0  0  0  0
 52 57  1  0  0  0  0
 22 31  1  0  0  0  0
 19 24  1  0  0  0  0
  3  8  1  0  0  0  0
  6 11  1  0  0  0  0
  2 13  1  0  0  0  0
  5 10  1  0  0  0  0
 39 40  1  0  0  0  0
  9 34  1  0  0  0  0
 38 44  1  0  0  0  0
 38 43  1  0  0  0  0
 34 36  1  0  0  0  0
 39 42  1  0  0  0  0
 38 45  1  0  0  0  0
 46 59  1  0  0  0  0
 25 33  1  0  0  0  0
 27 29  1  0  0  0  0
 39 41  1  0  0  0  0
 34 35  1  0  0  0  0
 46 58  1  0  0  0  0
 27 30  1  0  0  0  0
 28 37  1  0  0  0  0
 31 32  1  0  0  0  0
 26 31  1  0  0  0  0
 18 27  1  0  0  0  0
 14 53  1  0  0  0  0
 20 21  2  0  0  0  0
 23 25  2  0  0  0  0
  1  2  1  0  0  0  0
  1  3  1  0  0  0  0
  1  4  1  0  0  0  0
  1  5  1  0  0  0  0
  1  6  1  0  0  0  0
  1  7  1  0  0  0  0
  1 12  1  0  0  0  0
  1 25  1  0  0  0  0
  1 31  1  0  0  0  0
M  END
$$$$
