compound_92
  GFN2-xTB geometry (ORCA XTB2, DDCOSMO(water))

 59 69  0  0  0  0  0  0  0  0999 V2000
   -0.8233    0.7461    0.8265 Ru  0  0  0  0  0  0  0  0  0  0  0  0
    0.0062   -0.1229   -1.1883 C   0  0  0  0  0  0  0  0  0  0  0  0
    0.1346    1.2870   -1.1822 C   0  0  0  0  0  0  0  0  0  0  0  0
    0.8394    1.9393   -0.1492 C   0  0  0  0  0  0  0  0  0  0  0  0
    1.4110    1.2108    0.9232 C   0  0  0  0  0  0  0  0  0  0  0  0
    1.2362   -0.1940    0.9265 C   0  0  0  0  0  0  0  0  0  0  0  0
    0.5598   -0.8542   -0.1192 C   0  0  0  0  0  0  0  0  0  0  0  0
    0.0110   -0.7625   -3.2098 H   0  0  0  0  0  0  0  0  0  0  0  0
    2.2570    1.9016    1.9668 C   0  0  0  0  0  0  0  0  0  0  0  0
   -4.7556   -0.9024    0.7971 C   0  0  0  0  0  0  0  0  0  0  0  0
    4.3553    2.1327    2.4157 H   0  0  0  0  0  0  0  0  0  0  0  0
   -3.5101   -0.5544    1.1702 N   0  0  0  0  0  0  0  0  0  0  0  0
   -3.0447   -0.8368    2.4099 C   0  0  0  0  0  0  0  0  0  0  0  0
   -3.8711   -1.5260    3.3015 C   0  0  0  0  0  0  0  0  0  0  0  0
   -5.1424   -1.8946    2.9305 C   0  0  0  0  0  0  0  0  0  0  0  0
   -5.5942   -1.5692    1.6508 C   0  0  0  0  0  0  0  0  0  0  0  0
    3.9436    0.5478    1.7635 H   0  0  0  0  0  0  0  0  0  0  0  0
    2.0956    2.9799    1.8791 H   0  0  0  0  0  0  0  0  0  0  0  0
    3.7365    1.6130    1.6894 C   0  0  0  0  0  0  0  0  0  0  0  0
    1.0105    3.0093   -0.2136 H   0  0  0  0  0  0  0  0  0  0  0  0
    2.3313    2.1406    4.1098 H   0  0  0  0  0  0  0  0  0  0  0  0
    2.2082    0.4632    3.6003 H   0  0  0  0  0  0  0  0  0  0  0  0
   -1.5823   -0.3144   -2.6072 H   0  0  0  0  0  0  0  0  0  0  0  0
    0.7888    1.5097    3.5129 H   0  0  0  0  0  0  0  0  0  0  0  0
    1.6980   -0.7878    1.7080 H   0  0  0  0  0  0  0  0  0  0  0  0
    1.8722    1.4746    3.3850 C   0  0  0  0  0  0  0  0  0  0  0  0
   -0.8534   -1.8539   -2.1210 H   0  0  0  0  0  0  0  0  0  0  0  0
   -0.2339    1.8539   -2.0298 H   0  0  0  0  0  0  0  0  0  0  0  0
    4.0154    1.9501    0.6937 H   0  0  0  0  0  0  0  0  0  0  0  0
    0.5200   -1.9375   -0.1311 H   0  0  0  0  0  0  0  0  0  0  0  0
   -6.5851   -1.8316    1.3235 H   0  0  0  0  0  0  0  0  0  0  0  0
   -0.6490   -0.8094   -2.3433 C   0  0  0  0  0  0  0  0  0  0  0  0
   -3.4731   -1.7453    4.2783 H   0  0  0  0  0  0  0  0  0  0  0  0
   -5.7800   -2.4214    3.6202 H   0  0  0  0  0  0  0  0  0  0  0  0
   -1.4609   -0.3330    2.8636 S   0  0  0  0  0  0  0  0  0  0  0  0
   -5.0248   -0.6202   -0.2089 H   0  0  0  0  0  0  0  0  0  0  0  0
   -2.7593    0.0637    0.2640 O   0  0  0  0  0  0  0  0  0  0  0  0
   -1.9282    2.6350    1.5171 P   0  0  0  0  0  0  0  0  0  0  0  0
   -3.4774    2.5766    2.5505 C   0  0  0  0  0  0  0  0  0  0  0  0
   -4.0038    3.9065    2.7655 N   0  0  0  0  0  0  0  0  0  0  0  0
   -3.0648    4.7555    3.4831 C   0  0  0  0  0  0  0  0  0  0  0  0
   -1.8898    5.0930    2.6970 N   0  0  0  0  0  0  0  0  0  0  0  0
   -1.0353    3.9490    2.4784 C   0  0  0  0  0  0  0  0  0  0  0  0
   -2.5827    3.7095    0.1522 C   0  0  0  0  0  0  0  0  0  0  0  0
   -3.2313    4.8886    0.6829 N   0  0  0  0  0  0  0  0  0  0  0  0
   -2.3094    5.7125    1.4504 C   0  0  0  0  0  0  0  0  0  0  0  0
   -3.2485    2.1130    3.5183 H   0  0  0  0  0  0  0  0  0  0  0  0
   -4.2385    1.9738    2.0401 H   0  0  0  0  0  0  0  0  0  0  0  0
   -1.4293    5.9291    0.8413 H   0  0  0  0  0  0  0  0  0  0  0  0
   -2.7527    4.2496    4.3991 H   0  0  0  0  0  0  0  0  0  0  0  0
   -3.5797    5.6840    3.7440 H   0  0  0  0  0  0  0  0  0  0  0  0
   -0.1474    4.2641    1.9223 H   0  0  0  0  0  0  0  0  0  0  0  0
   -0.7216    3.5398    3.4442 H   0  0  0  0  0  0  0  0  0  0  0  0
   -3.2990    3.1315   -0.4436 H   0  0  0  0  0  0  0  0  0  0  0  0
   -1.7544    4.0160   -0.4954 H   0  0  0  0  0  0  0  0  0  0  0  0
   -2.8158    6.6510    1.6911 H   0  0  0  0  0  0  0  0  0  0  0  0
   -4.3749    4.5538    1.5163 C   0  0  0  0  0  0  0  0  0  0  0  0
   -4.9013    5.4806    1.7591 H   0  0  0  0  0  0  0  0  0  0  0  0
   -5.0466    3.8980    0.9577 H   0  0  0  0  0  0  0  0  0  0  0  0
 10 16  2  0  0  0  0
 14 15  2  0  0  0  0
 10 12  1  0  0  0  0
  2 32  1  0  0  0  0
 12 13  1  0  0  0  0
 12 37  1  0  0  0  0
 15 16  1  0  0  0  0
 13 14  1  0  0  0  0
  5  9  1  0  0  0  0
  2  7  4  0  0  0  0
  6  7  4  0  0  0  0
  3  4  4  0  0  0  0
  5  6  4  0  0  0  0
  2  3  4  0  0  0  0
  4  5  4  0  0  0  0
 38 44  1  0  0  0  0
 38 43  1  0  0  0  0
  9 26  1  0  0  0  0
  9 19  1  0  0  0  0
 38 39  1  0  0  0  0
 16 31  1  0  0  0  0
 15 34  1  0  0  0  0
 14 33  1  0  0  0  0
 10 36  1  0  0  0  0
  7 30  1  0  0  0  0
  3 28  1  0  0  0  0
  6 25  1  0  0  0  0
  4 20  1  0  0  0  0
 21 26  1  0  0  0  0
 11 19  1  0  0  0  0
 22 26  1  0  0  0  0
 27 32  1  0  0  0  0
 19 29  1  0  0  0  0
 17 19  1  0  0  0  0
 23 32  1  0  0  0  0
  8 32  1  0  0  0  0
 24 26  1  0  0  0  0
 46 49  1  0  0  0  0
 41 50  1  0  0  0  0
 57 59  1  0  0  0  0
 57 58  1  0  0  0  0
 46 56  1  0  0  0  0
 41 51  1  0  0  0  0
  9 18  1  0  0  0  0
 43 52  1  0  0  0  0
 43 53  1  0  0  0  0
 44 55  1  0  0  0  0
 44 54  1  0  0  0  0
 39 48  1  0  0  0  0
 39 47  1  0  0  0  0
 13 35  2  0  0  0  0
 42 43  1  0  0  0  0
 39 40  1  0  0  0  0
 44 45  1  0  0  0  0
 41 42  1  0  0  0  0
 42 46  1  0  0  0  0
 45 57  1  0  0  0  0
 40 57  1  0  0  0  0
 40 41  1  0  0  0  0
 45 46  1  0  0  0  0
  1  2  1  0  0  0  0
  1  3  1  0  0  0  0
  1  4  1  0  0  0  0
  1  5  1  0  0  0  0
  1  6  1  0  0  0  0
  1  7  1  0  0  0  0
  1 35  1  0  0  0  0
  1 37  1  0  0  0  0
  1 38  1  0  0  0  0
M  END
$$$$
