compound_62
  GFN2-xTB geometry (ORCA XTB2, DDCOSMO(water))

 58 64  0  0  0  0  0  0  0  0999 V2000
   -0.6431   -2.6674    1.1669 Ru  0  0  0  0  0  0  0  0  0  0  0  0
    1.0357   -2.6613   -1.2317 C   0  0  0  0  0  0  0  0  0  0  0  0
    1.9245   -3.1631   -2.1771 C   0  0  0  0  0  0  0  0  0  0  0  0
    2.4792   -4.4240   -2.0216 C   0  0  0  0  0  0  0  0  0  0  0  0
    2.1009   -5.1546   -0.8947 C   0  0  0  0  0  0  0  0  0  0  0  0
    1.2188   -4.6025    0.0087 C   0  0  0  0  0  0  0  0  0  0  0  0
    0.7051   -3.3812   -0.1350 N   0  0  0  0  0  0  0  0  0  0  0  0
    2.5832   -4.0058    2.6690 H   0  0  0  0  0  0  0  0  0  0  0  0
    8.0916   -5.1599   -3.7894 H   0  0  0  0  0  0  0  0  0  0  0  0
    2.4852   -6.1471   -0.7272 H   0  0  0  0  0  0  0  0  0  0  0  0
    0.8938   -5.1627    0.8768 H   0  0  0  0  0  0  0  0  0  0  0  0
    0.3272   -1.3941   -1.2974 C   0  0  0  0  0  0  0  0  0  0  0  0
    0.4517   -0.4467   -2.3124 C   0  0  0  0  0  0  0  0  0  0  0  0
   -0.3359    0.6862   -2.2860 C   0  0  0  0  0  0  0  0  0  0  0  0
   -1.2558    0.8646   -1.2632 C   0  0  0  0  0  0  0  0  0  0  0  0
   -1.3777   -0.0778   -0.2538 C   0  0  0  0  0  0  0  0  0  0  0  0
   -0.5821   -1.2133   -0.2382 C   0  0  0  0  0  0  0  0  0  0  0  0
    1.1530   -0.5993   -3.1176 H   0  0  0  0  0  0  0  0  0  0  0  0
   -0.2474    1.4260   -3.0665 H   0  0  0  0  0  0  0  0  0  0  0  0
   -1.8854    1.7422   -1.2520 H   0  0  0  0  0  0  0  0  0  0  0  0
   -2.1168    0.0780    0.5203 H   0  0  0  0  0  0  0  0  0  0  0  0
   -2.3266   -3.8040   -0.2203 Cl  0  0  0  0  0  0  0  0  0  0  0  0
   -0.4452   -1.1851    2.8105 C   0  0  0  0  0  0  0  0  0  0  0  0
   -1.7447   -1.7225    2.9814 C   0  0  0  0  0  0  0  0  0  0  0  0
   -1.8491   -3.1272    3.0729 C   0  0  0  0  0  0  0  0  0  0  0  0
   -0.7088   -3.9561    3.2163 C   0  0  0  0  0  0  0  0  0  0  0  0
    0.5742   -3.4145    3.1203 C   0  0  0  0  0  0  0  0  0  0  0  0
    0.6984   -2.0241    2.8267 C   0  0  0  0  0  0  0  0  0  0  0  0
   -2.6752    0.1767    2.7975 H   0  0  0  0  0  0  0  0  0  0  0  0
   -0.3146   -0.1088    2.7598 H   0  0  0  0  0  0  0  0  0  0  0  0
   -2.8291   -3.5787    3.1985 H   0  0  0  0  0  0  0  0  0  0  0  0
    1.6868   -1.5764    2.8017 H   0  0  0  0  0  0  0  0  0  0  0  0
   -0.8452   -5.0057    3.4457 H   0  0  0  0  0  0  0  0  0  0  0  0
   -2.9429   -0.8196    3.1648 C   0  0  0  0  0  0  0  0  0  0  0  0
   -4.1668   -1.3070    2.3854 C   0  0  0  0  0  0  0  0  0  0  0  0
   -3.2597   -0.7105    4.6608 C   0  0  0  0  0  0  0  0  0  0  0  0
   -2.4028   -0.3175    5.2020 H   0  0  0  0  0  0  0  0  0  0  0  0
   -3.5104   -1.6876    5.0676 H   0  0  0  0  0  0  0  0  0  0  0  0
   -4.1052   -0.0450    4.8108 H   0  0  0  0  0  0  0  0  0  0  0  0
   -3.8906   -1.5866    1.3659 H   0  0  0  0  0  0  0  0  0  0  0  0
   -4.9168   -0.5226    2.3355 H   0  0  0  0  0  0  0  0  0  0  0  0
   -4.6174   -2.1757    2.8597 H   0  0  0  0  0  0  0  0  0  0  0  0
    1.8004   -4.2299    3.3906 C   0  0  0  0  0  0  0  0  0  0  0  0
    1.5815   -5.2942    3.3661 H   0  0  0  0  0  0  0  0  0  0  0  0
    2.1764   -3.9788    4.3827 H   0  0  0  0  0  0  0  0  0  0  0  0
    2.1678   -2.5650   -3.0396 H   0  0  0  0  0  0  0  0  0  0  0  0
    5.8537   -6.2193   -3.6022 H   0  0  0  0  0  0  0  0  0  0  0  0
    5.7613   -4.7164   -4.5191 H   0  0  0  0  0  0  0  0  0  0  0  0
    3.4756   -4.9636   -2.9964 C   0  0  0  0  0  0  0  0  0  0  0  0
    4.8998   -4.6026   -2.5514 C   0  0  0  0  0  0  0  0  0  0  0  0
    5.9464   -5.1338   -3.5272 C   0  0  0  0  0  0  0  0  0  0  0  0
    7.3598   -4.7759   -3.0831 C   0  0  0  0  0  0  0  0  0  0  0  0
    7.5715   -5.2006   -2.1045 H   0  0  0  0  0  0  0  0  0  0  0  0
    7.4776   -3.6965   -3.0197 H   0  0  0  0  0  0  0  0  0  0  0  0
    5.0829   -5.0195   -1.5593 H   0  0  0  0  0  0  0  0  0  0  0  0
    4.9876   -3.5168   -2.4780 H   0  0  0  0  0  0  0  0  0  0  0  0
    3.2924   -4.5422   -3.9852 H   0  0  0  0  0  0  0  0  0  0  0  0
    3.3843   -6.0486   -3.0567 H   0  0  0  0  0  0  0  0  0  0  0  0
  2 12  1  0  0  0  0
  5  6  4  0  0  0  0
 13 14  4  0  0  0  0
  4 49  1  0  0  0  0
  3  4  4  0  0  0  0
 15 16  4  0  0  0  0
 16 17  4  0  0  0  0
 14 15  4  0  0  0  0
 27 43  1  0  0  0  0
  2  3  4  0  0  0  0
 12 13  4  0  0  0  0
  4  5  4  0  0  0  0
 26 27  4  0  0  0  0
  6  7  4  0  0  0  0
 24 34  1  0  0  0  0
 12 17  4  0  0  0  0
 24 25  4  0  0  0  0
 51 52  1  0  0  0  0
 50 51  1  0  0  0  0
 23 24  4  0  0  0  0
 25 26  4  0  0  0  0
  2  7  4  0  0  0  0
 23 28  4  0  0  0  0
 34 35  1  0  0  0  0
 34 36  1  0  0  0  0
 49 50  1  0  0  0  0
 27 28  4  0  0  0  0
  3 46  1  0  0  0  0
  5 10  1  0  0  0  0
 13 18  1  0  0  0  0
 14 19  1  0  0  0  0
 15 20  1  0  0  0  0
 16 21  1  0  0  0  0
 26 33  1  0  0  0  0
  6 11  1  0  0  0  0
 23 30  1  0  0  0  0
 28 32  1  0  0  0  0
 25 31  1  0  0  0  0
 35 41  1  0  0  0  0
 36 39  1  0  0  0  0
 43 44  1  0  0  0  0
 36 37  1  0  0  0  0
  9 52  1  0  0  0  0
 35 42  1  0  0  0  0
 52 53  1  0  0  0  0
 52 54  1  0  0  0  0
 36 38  1  0  0  0  0
  8 43  1  0  0  0  0
 43 45  1  0  0  0  0
 49 57  1  0  0  0  0
 49 58  1  0  0  0  0
 50 55  1  0  0  0  0
 50 56  1  0  0  0  0
 48 51  1  0  0  0  0
 47 51  1  0  0  0  0
 35 40  1  0  0  0  0
 29 34  1  0  0  0  0
  1 24  1  0  0  0  0
  1 27  1  0  0  0  0
  1 22  1  0  0  0  0
  1 26  1  0  0  0  0
  1  7  1  0  0  0  0
  1 17  1  0  0  0  0
  1 23  1  0  0  0  0
M  END
$$$$
