compound_56
  GFN2-xTB geometry (ORCA XTB2, DDCOSMO(water))

 61 71  0  0  0  0  0  0  0  0999 V2000
   -0.0859    0.4151    1.7262 Ru  0  0  0  0  0  0  0  0  0  0  0  0
    2.0875    0.1553    1.4045 C   0  0  0  0  0  0  0  0  0  0  0  0
   -1.3263   -0.8549    0.3892 C   0  0  0  0  0  0  0  0  0  0  0  0
    1.7852   -0.1530    2.7717 C   0  0  0  0  0  0  0  0  0  0  0  0
    1.7358    1.5335    1.1908 C   0  0  0  0  0  0  0  0  0  0  0  0
   -1.6837    0.5083    0.1879 C   0  0  0  0  0  0  0  0  0  0  0  0
   -1.6230   -1.1941    1.7375 C   0  0  0  0  0  0  0  0  0  0  0  0
    1.2709    1.0132    3.3903 C   0  0  0  0  0  0  0  0  0  0  0  0
    1.2457    2.0547    2.4185 C   0  0  0  0  0  0  0  0  0  0  0  0
   -2.2045    1.0112    1.4150 C   0  0  0  0  0  0  0  0  0  0  0  0
   -2.1650   -0.0421    2.3728 C   0  0  0  0  0  0  0  0  0  0  0  0
   -2.6056   -0.0150    3.3602 H   0  0  0  0  0  0  0  0  0  0  0  0
   -1.0107   -1.5478   -0.3792 H   0  0  0  0  0  0  0  0  0  0  0  0
    2.0557   -1.0803    3.2602 H   0  0  0  0  0  0  0  0  0  0  0  0
    1.9799    2.1326    0.3243 H   0  0  0  0  0  0  0  0  0  0  0  0
   -1.7041    1.0218   -0.7635 H   0  0  0  0  0  0  0  0  0  0  0  0
   -1.5743   -2.1869    2.1637 H   0  0  0  0  0  0  0  0  0  0  0  0
    1.0695    1.1278    4.4463 H   0  0  0  0  0  0  0  0  0  0  0  0
    1.0300    3.0954    2.6193 H   0  0  0  0  0  0  0  0  0  0  0  0
   -2.6856    1.9702    1.5520 H   0  0  0  0  0  0  0  0  0  0  0  0
    3.3200   -1.8113    0.9086 O   0  0  0  0  0  0  0  0  0  0  0  0
    2.7990   -0.7669    0.4963 C   0  0  0  0  0  0  0  0  0  0  0  0
    2.8446   -0.4017   -0.7954 N   0  0  0  0  0  0  0  0  0  0  0  0
    3.5773   -1.1328   -1.8042 C   0  0  0  0  0  0  0  0  0  0  0  0
    5.0257   -0.6500   -1.9325 C   0  0  0  0  0  0  0  0  0  0  0  0
    5.1109    0.8283   -2.3058 C   0  0  0  0  0  0  0  0  0  0  0  0
    6.5561    1.2519   -2.5650 C   0  0  0  0  0  0  0  0  0  0  0  0
    6.6390    2.6340   -3.0087 N   0  0  0  0  0  0  0  0  0  0  0  0
    6.5231    3.5813   -1.9156 C   0  0  0  0  0  0  0  0  0  0  0  0
    6.4470    5.0125   -2.4573 C   0  0  0  0  0  0  0  0  0  0  0  0
    7.6299    5.3223   -3.2354 N   0  0  0  0  0  0  0  0  0  0  0  0
    7.7929    4.3425   -4.2899 C   0  0  0  0  0  0  0  0  0  0  0  0
    7.8563    2.9105   -3.7521 C   0  0  0  0  0  0  0  0  0  0  0  0
    2.4272    0.4721   -1.0731 H   0  0  0  0  0  0  0  0  0  0  0  0
    3.0562   -1.0131   -2.7544 H   0  0  0  0  0  0  0  0  0  0  0  0
    3.5713   -2.1878   -1.5158 H   0  0  0  0  0  0  0  0  0  0  0  0
    5.5197   -1.2543   -2.6941 H   0  0  0  0  0  0  0  0  0  0  0  0
    5.5383   -0.8236   -0.9823 H   0  0  0  0  0  0  0  0  0  0  0  0
    4.6913    1.4264   -1.4974 H   0  0  0  0  0  0  0  0  0  0  0  0
    4.5317    1.0156   -3.2102 H   0  0  0  0  0  0  0  0  0  0  0  0
    6.9622    0.6222   -3.3602 H   0  0  0  0  0  0  0  0  0  0  0  0
    7.1651    1.0783   -1.6590 H   0  0  0  0  0  0  0  0  0  0  0  0
    7.3837    3.5026   -1.2221 H   0  0  0  0  0  0  0  0  0  0  0  0
    5.6128    3.3711   -1.3551 H   0  0  0  0  0  0  0  0  0  0  0  0
    6.3419    5.6989   -1.6220 H   0  0  0  0  0  0  0  0  0  0  0  0
    5.5754    5.1032   -3.1104 H   0  0  0  0  0  0  0  0  0  0  0  0
    7.9193    2.2149   -4.5908 H   0  0  0  0  0  0  0  0  0  0  0  0
    8.6715    4.5791   -4.8865 H   0  0  0  0  0  0  0  0  0  0  0  0
    6.9072    4.4228   -4.9266 H   0  0  0  0  0  0  0  0  0  0  0  0
    8.7509    2.7788   -3.1175 H   0  0  0  0  0  0  0  0  0  0  0  0
    8.7207    5.9382   -2.6728 C   0  0  0  0  0  0  0  0  0  0  0  0
   10.0270    5.4454   -2.8372 C   0  0  0  0  0  0  0  0  0  0  0  0
   11.1254    6.0795   -2.3008 C   0  0  0  0  0  0  0  0  0  0  0  0
   10.9846    7.2410   -1.5603 C   0  0  0  0  0  0  0  0  0  0  0  0
    9.7152    7.7707   -1.4160 C   0  0  0  0  0  0  0  0  0  0  0  0
    8.6040    7.1584   -1.9744 C   0  0  0  0  0  0  0  0  0  0  0  0
   10.1774    4.5301   -3.3831 H   0  0  0  0  0  0  0  0  0  0  0  0
   12.1073    5.6577   -2.4418 H   0  0  0  0  0  0  0  0  0  0  0  0
   11.8296    7.7380   -1.1162 H   0  0  0  0  0  0  0  0  0  0  0  0
    7.0833    8.0046   -1.8612 Cl  0  0  0  0  0  0  0  0  0  0  0  0
    9.5228    9.2651   -0.5382 Cl  0  0  0  0  0  0  0  0  0  0  0  0
  2 22  1  0  0  0  0
 52 53  4  0  0  0  0
 22 23  1  0  0  0  0
 54 55  4  0  0  0  0
 53 54  4  0  0  0  0
 55 56  4  0  0  0  0
 51 52  4  0  0  0  0
 31 51  1  0  0  0  0
 51 56  4  0  0  0  0
 55 61  1  0  0  0  0
 56 60  1  0  0  0  0
 25 26  1  0  0  0  0
 26 27  1  0  0  0  0
  4  8  4  0  0  0  0
 32 33  1  0  0  0  0
 24 25  1  0  0  0  0
 29 30  1  0  0  0  0
  5  9  4  0  0  0  0
  3  7  4  0  0  0  0
  7 11  4  0  0  0  0
  3  6  4  0  0  0  0
 10 11  4  0  0  0  0
  8  9  4  0  0  0  0
  6 10  4  0  0  0  0
  2  4  4  0  0  0  0
 54 59  1  0  0  0  0
 52 57  1  0  0  0  0
 23 34  1  0  0  0  0
 53 58  1  0  0  0  0
  2  5  4  0  0  0  0
  8 18  1  0  0  0  0
  6 16  1  0  0  0  0
  5 15  1  0  0  0  0
  7 17  1  0  0  0  0
 10 20  1  0  0  0  0
 11 12  1  0  0  0  0
  9 19  1  0  0  0  0
  3 13  1  0  0  0  0
  4 14  1  0  0  0  0
 30 45  1  0  0  0  0
 32 48  1  0  0  0  0
 29 44  1  0  0  0  0
 26 39  1  0  0  0  0
 26 40  1  0  0  0  0
 24 35  1  0  0  0  0
 25 37  1  0  0  0  0
 33 47  1  0  0  0  0
 27 41  1  0  0  0  0
 30 46  1  0  0  0  0
 25 38  1  0  0  0  0
 24 36  1  0  0  0  0
 32 49  1  0  0  0  0
 33 50  1  0  0  0  0
 27 42  1  0  0  0  0
 29 43  1  0  0  0  0
 23 24  1  0  0  0  0
 31 32  1  0  0  0  0
 30 31  1  0  0  0  0
 28 29  1  0  0  0  0
 28 33  1  0  0  0  0
 27 28  1  0  0  0  0
 21 22  2  0  0  0  0
  1  2  1  0  0  0  0
  1  3  1  0  0  0  0
  1  4  1  0  0  0  0
  1  5  1  0  0  0  0
  1  6  1  0  0  0  0
  1  7  1  0  0  0  0
  1  8  1  0  0  0  0
  1  9  1  0  0  0  0
  1 10  1  0  0  0  0
M  END
$$$$
