compound_119
  GFN2-xTB geometry (ORCA XTB2, DDCOSMO(water))

 66 75  0  0  0  0  0  0  0  0999 V2000
   -4.0164   -5.3028   -0.9793 C   0  0  0  0  0  0  0  0  0  0  0  0
   -5.1205   -6.0704   -0.6932 C   0  0  0  0  0  0  0  0  0  0  0  0
   -4.9372   -7.3611   -0.1003 C   0  0  0  0  0  0  0  0  0  0  0  0
   -3.6557   -7.8288    0.0994 C   0  0  0  0  0  0  0  0  0  0  0  0
   -2.5249   -7.0583   -0.2014 C   0  0  0  0  0  0  0  0  0  0  0  0
   -2.7133   -5.7383   -0.6867 C   0  0  0  0  0  0  0  0  0  0  0  0
   -4.1306   -4.3558   -1.4754 H   0  0  0  0  0  0  0  0  0  0  0  0
  -12.5669   -1.1662    0.3489 H   0  0  0  0  0  0  0  0  0  0  0  0
   -3.5189   -8.8224    0.4940 H   0  0  0  0  0  0  0  0  0  0  0  0
  -11.6787   -1.1115    1.7379 H   0  0  0  0  0  0  0  0  0  0  0  0
   -5.9179   -8.2221    0.2500 O   0  0  0  0  0  0  0  0  0  0  0  0
   -7.2677   -7.8018    0.4112 C   0  0  0  0  0  0  0  0  0  0  0  0
   -7.3273   -6.9489    1.0871 H   0  0  0  0  0  0  0  0  0  0  0  0
   -7.7686   -8.6609    0.8545 H   0  0  0  0  0  0  0  0  0  0  0  0
   -7.7256   -7.5616   -0.5483 H   0  0  0  0  0  0  0  0  0  0  0  0
   -6.3869   -5.6659   -0.9535 O   0  0  0  0  0  0  0  0  0  0  0  0
   -8.1018   -4.0876   -1.4317 C   0  0  0  0  0  0  0  0  0  0  0  0
   -8.6673   -4.0827   -0.0125 C   0  0  0  0  0  0  0  0  0  0  0  0
   -8.2909   -3.1200   -1.9070 H   0  0  0  0  0  0  0  0  0  0  0  0
   -7.9879   -3.5695    0.6716 H   0  0  0  0  0  0  0  0  0  0  0  0
   -8.7801   -5.1164    0.3274 H   0  0  0  0  0  0  0  0  0  0  0  0
   -8.5971   -4.8540   -2.0288 H   0  0  0  0  0  0  0  0  0  0  0  0
   -9.9672   -3.4127    0.0193 N   0  0  0  0  0  0  0  0  0  0  0  0
  -10.5203   -3.7837   -0.7661 H   0  0  0  0  0  0  0  0  0  0  0  0
   -4.9522    0.9609    0.0530 Cl  0  0  0  0  0  0  0  0  0  0  0  0
  -10.7165   -3.7015    1.2507 C   0  0  0  0  0  0  0  0  0  0  0  0
  -12.0642   -3.0142    1.0985 C   0  0  0  0  0  0  0  0  0  0  0  0
  -11.7799   -1.5954    0.8408 N   0  0  0  0  0  0  0  0  0  0  0  0
  -10.8378   -4.7792    1.3905 H   0  0  0  0  0  0  0  0  0  0  0  0
  -10.1627   -3.2814    2.0961 H   0  0  0  0  0  0  0  0  0  0  0  0
  -12.6778   -3.1407    1.9933 H   0  0  0  0  0  0  0  0  0  0  0  0
  -12.5948   -3.4300    0.2356 H   0  0  0  0  0  0  0  0  0  0  0  0
   -1.2864   -7.5900   -0.0438 N   0  0  0  0  0  0  0  0  0  0  0  0
   -0.2860   -6.8332   -0.4003 C   0  0  0  0  0  0  0  0  0  0  0  0
   -0.3298   -5.5634   -0.7979 N   0  0  0  0  0  0  0  0  0  0  0  0
   -1.5232   -4.9831   -0.8835 C   0  0  0  0  0  0  0  0  0  0  0  0
   -8.1137    0.0160   -2.4858 H   0  0  0  0  0  0  0  0  0  0  0  0
    0.7033   -7.2711   -0.3394 H   0  0  0  0  0  0  0  0  0  0  0  0
   -6.8452   -1.3292   -0.8351 H   0  0  0  0  0  0  0  0  0  0  0  0
   -1.4827   -3.6641   -1.2392 N   0  0  0  0  0  0  0  0  0  0  0  0
   -2.3188   -2.6140   -0.9055 C   0  0  0  0  0  0  0  0  0  0  0  0
   -3.2390   -2.6740    0.1433 C   0  0  0  0  0  0  0  0  0  0  0  0
   -4.0390   -1.5812    0.4078 C   0  0  0  0  0  0  0  0  0  0  0  0
   -3.9432   -0.4054   -0.3234 C   0  0  0  0  0  0  0  0  0  0  0  0
   -3.0000   -0.3328   -1.3384 C   0  0  0  0  0  0  0  0  0  0  0  0
   -2.2010   -1.4199   -1.6246 C   0  0  0  0  0  0  0  0  0  0  0  0
   -3.3285   -3.5508    0.7631 H   0  0  0  0  0  0  0  0  0  0  0  0
   -0.5780   -3.3929   -1.6053 H   0  0  0  0  0  0  0  0  0  0  0  0
   -4.9451   -1.6762    1.4055 F   0  0  0  0  0  0  0  0  0  0  0  0
   -2.8987    0.5789   -1.9039 H   0  0  0  0  0  0  0  0  0  0  0  0
   -1.4727   -1.3513   -2.4162 H   0  0  0  0  0  0  0  0  0  0  0  0
  -10.0059   -1.3157   -0.2672 Ru  0  0  0  0  0  0  0  0  0  0  0  0
   -9.4841    0.8342   -1.0186 C   0  0  0  0  0  0  0  0  0  0  0  0
   -9.8237    0.9034    0.3309 C   0  0  0  0  0  0  0  0  0  0  0  0
   -9.1564    0.0688    1.2703 C   0  0  0  0  0  0  0  0  0  0  0  0
   -8.1119   -0.7712    0.8437 C   0  0  0  0  0  0  0  0  0  0  0  0
   -7.7173   -0.7727   -0.5208 C   0  0  0  0  0  0  0  0  0  0  0  0
   -8.4226   -0.0076   -1.4470 C   0  0  0  0  0  0  0  0  0  0  0  0
  -10.5683    1.6156    0.6659 H   0  0  0  0  0  0  0  0  0  0  0  0
   -9.3821    0.1599    2.3268 H   0  0  0  0  0  0  0  0  0  0  0  0
  -11.3365   -1.8058   -2.2282 Cl  0  0  0  0  0  0  0  0  0  0  0  0
   -7.5252   -1.3186    1.5722 H   0  0  0  0  0  0  0  0  0  0  0  0
   -9.9726    1.4803   -1.7392 H   0  0  0  0  0  0  0  0  0  0  0  0
   -6.6000   -4.3456   -1.4409 C   0  0  0  0  0  0  0  0  0  0  0  0
   -6.0861   -3.6308   -0.7888 H   0  0  0  0  0  0  0  0  0  0  0  0
   -6.2039   -4.2553   -2.4593 H   0  0  0  0  0  0  0  0  0  0  0  0
  6 36  1  0  0  0  0
  3 11  1  0  0  0  0
  2 16  1  0  0  0  0
 34 35  1  0  0  0  0
 43 49  1  0  0  0  0
  1  2  4  0  0  0  0
  3  4  4  0  0  0  0
 45 46  4  0  0  0  0
 42 43  4  0  0  0  0
 44 45  4  0  0  0  0
 43 44  4  0  0  0  0
 57 58  4  0  0  0  0
 53 54  4  0  0  0  0
  5 33  1  0  0  0  0
 41 42  4  0  0  0  0
 41 46  4  0  0  0  0
  4  5  4  0  0  0  0
 36 40  1  0  0  0  0
  1  6  4  0  0  0  0
 55 56  4  0  0  0  0
 26 27  1  0  0  0  0
 25 44  1  0  0  0  0
 17 64  1  0  0  0  0
 17 18  1  0  0  0  0
  5  6  4  0  0  0  0
 11 12  1  0  0  0  0
 56 57  4  0  0  0  0
 40 41  1  0  0  0  0
 16 64  1  0  0  0  0
 53 58  4  0  0  0  0
 54 55  4  0  0  0  0
  2  3  4  0  0  0  0
  1  7  1  0  0  0  0
 42 47  1  0  0  0  0
 45 50  1  0  0  0  0
  4  9  1  0  0  0  0
 46 51  1  0  0  0  0
 39 57  1  0  0  0  0
 54 59  1  0  0  0  0
 34 38  1  0  0  0  0
 56 62  1  0  0  0  0
 40 48  1  0  0  0  0
 37 58  1  0  0  0  0
 55 60  1  0  0  0  0
 53 63  1  0  0  0  0
 12 14  1  0  0  0  0
 12 13  1  0  0  0  0
 12 15  1  0  0  0  0
 17 22  1  0  0  0  0
 18 20  1  0  0  0  0
 27 31  1  0  0  0  0
 26 29  1  0  0  0  0
  8 28  1  0  0  0  0
 18 21  1  0  0  0  0
 17 19  1  0  0  0  0
 26 30  1  0  0  0  0
 27 32  1  0  0  0  0
 64 65  1  0  0  0  0
 10 28  1  0  0  0  0
 64 66  1  0  0  0  0
 23 24  1  0  0  0  0
 18 23  1  0  0  0  0
 27 28  1  0  0  0  0
 23 26  1  0  0  0  0
 33 34  2  0  0  0  0
 35 36  2  0  0  0  0
 52 28  1  0  0  0  0
 52 61  1  0  0  0  0
 52 23  1  0  0  0  0
 52 53  1  0  0  0  0
 52 54  1  0  0  0  0
 52 55  1  0  0  0  0
 52 56  1  0  0  0  0
 52 57  1  0  0  0  0
 52 58  1  0  0  0  0
M  END
$$$$
