compound_125
  GFN2-xTB geometry (ORCA XTB2, DDCOSMO(water))

 73 81  0  0  0  0  0  0  0  0999 V2000
   -4.2632   -5.0304   -0.2228 C   0  0  0  0  0  0  0  0  0  0  0  0
   -5.0784   -6.0616    0.1763 C   0  0  0  0  0  0  0  0  0  0  0  0
   -4.6330   -7.4114    0.0342 C   0  0  0  0  0  0  0  0  0  0  0  0
   -3.4126   -7.6564   -0.5493 C   0  0  0  0  0  0  0  0  0  0  0  0
   -2.5816   -6.6062   -0.9751 C   0  0  0  0  0  0  0  0  0  0  0  0
   -2.9900   -5.2643   -0.7642 C   0  0  0  0  0  0  0  0  0  0  0  0
   -4.6298   -4.0234   -0.1278 H   0  0  0  0  0  0  0  0  0  0  0  0
  -11.0759   -0.6707    2.3169 H   0  0  0  0  0  0  0  0  0  0  0  0
   -3.0495   -8.6575   -0.7060 H   0  0  0  0  0  0  0  0  0  0  0  0
  -10.2220   -1.0259    3.6819 H   0  0  0  0  0  0  0  0  0  0  0  0
   -5.4700   -8.3712    0.4978 O   0  0  0  0  0  0  0  0  0  0  0  0
   -5.0774   -9.7258    0.3981 C   0  0  0  0  0  0  0  0  0  0  0  0
   -4.9513  -10.0255   -0.6450 H   0  0  0  0  0  0  0  0  0  0  0  0
   -5.8882  -10.2948    0.8470 H   0  0  0  0  0  0  0  0  0  0  0  0
   -4.1502   -9.9101    0.9454 H   0  0  0  0  0  0  0  0  0  0  0  0
   -6.2584   -5.7103    0.7502 O   0  0  0  0  0  0  0  0  0  0  0  0
   -8.6221   -5.4770    0.5826 C   0  0  0  0  0  0  0  0  0  0  0  0
   -8.9659   -5.1030    2.0246 C   0  0  0  0  0  0  0  0  0  0  0  0
   -8.3654   -4.5705    0.0240 H   0  0  0  0  0  0  0  0  0  0  0  0
   -8.0572   -4.9207    2.6009 H   0  0  0  0  0  0  0  0  0  0  0  0
   -9.5050   -5.9359    2.4881 H   0  0  0  0  0  0  0  0  0  0  0  0
   -9.4887   -5.9326    0.1032 H   0  0  0  0  0  0  0  0  0  0  0  0
   -9.8084   -3.9033    2.0442 N   0  0  0  0  0  0  0  0  0  0  0  0
  -10.4873   -4.0044    1.2772 H   0  0  0  0  0  0  0  0  0  0  0  0
   -4.6344    0.0662    2.8902 F   0  0  0  0  0  0  0  0  0  0  0  0
  -10.5875   -3.7630    3.2830 C   0  0  0  0  0  0  0  0  0  0  0  0
  -11.4677   -2.5346    3.0954 C   0  0  0  0  0  0  0  0  0  0  0  0
  -10.5652   -1.4140    2.7983 N   0  0  0  0  0  0  0  0  0  0  0  0
  -11.1935   -4.6546    3.4674 H   0  0  0  0  0  0  0  0  0  0  0  0
   -9.8915   -3.6151    4.1149 H   0  0  0  0  0  0  0  0  0  0  0  0
  -12.0673   -2.3378    3.9872 H   0  0  0  0  0  0  0  0  0  0  0  0
  -12.1332   -2.6872    2.2388 H   0  0  0  0  0  0  0  0  0  0  0  0
   -1.4189   -6.9087   -1.6068 N   0  0  0  0  0  0  0  0  0  0  0  0
   -0.7286   -5.8982   -2.0572 C   0  0  0  0  0  0  0  0  0  0  0  0
   -0.9919   -4.6020   -1.9070 N   0  0  0  0  0  0  0  0  0  0  0  0
   -2.0800   -4.2649   -1.2210 C   0  0  0  0  0  0  0  0  0  0  0  0
   -6.2341   -3.6739    1.5228 H   0  0  0  0  0  0  0  0  0  0  0  0
    0.1765   -6.1320   -2.6053 H   0  0  0  0  0  0  0  0  0  0  0  0
   -6.8160   -2.8148    3.7838 H   0  0  0  0  0  0  0  0  0  0  0  0
   -2.2791   -2.9221   -1.0998 N   0  0  0  0  0  0  0  0  0  0  0  0
   -2.8777   -2.2009   -0.0758 C   0  0  0  0  0  0  0  0  0  0  0  0
   -2.9963   -2.7112    1.2187 C   0  0  0  0  0  0  0  0  0  0  0  0
   -3.5848   -1.9527    2.2137 C   0  0  0  0  0  0  0  0  0  0  0  0
   -4.0429   -0.6746    1.9241 C   0  0  0  0  0  0  0  0  0  0  0  0
   -3.8996   -0.1432    0.6557 C   0  0  0  0  0  0  0  0  0  0  0  0
   -3.3172   -0.9015   -0.3394 C   0  0  0  0  0  0  0  0  0  0  0  0
   -2.6204   -3.6933    1.4534 H   0  0  0  0  0  0  0  0  0  0  0  0
   -1.6919   -2.3843   -1.7265 H   0  0  0  0  0  0  0  0  0  0  0  0
   -3.7043   -2.5812    3.8263 Cl  0  0  0  0  0  0  0  0  0  0  0  0
   -4.2405    0.8614    0.4665 H   0  0  0  0  0  0  0  0  0  0  0  0
   -3.1979   -0.4912   -1.3287 H   0  0  0  0  0  0  0  0  0  0  0  0
   -8.8887   -2.0228    1.6667 Ru  0  0  0  0  0  0  0  0  0  0  0  0
   -6.8714   -1.8998    0.4839 C   0  0  0  0  0  0  0  0  0  0  0  0
   -7.3648   -0.5835    0.6459 C   0  0  0  0  0  0  0  0  0  0  0  0
   -7.6616   -0.0779    1.9211 C   0  0  0  0  0  0  0  0  0  0  0  0
   -7.5274   -0.9017    3.0640 C   0  0  0  0  0  0  0  0  0  0  0  0
   -7.0300   -2.2112    2.9107 C   0  0  0  0  0  0  0  0  0  0  0  0
   -6.6810   -2.6933    1.6215 C   0  0  0  0  0  0  0  0  0  0  0  0
   -7.7010   -0.4918    4.0528 H   0  0  0  0  0  0  0  0  0  0  0  0
   -6.5658   -2.2485   -0.4956 H   0  0  0  0  0  0  0  0  0  0  0  0
  -10.3683   -1.9280   -0.2512 Cl  0  0  0  0  0  0  0  0  0  0  0  0
   -7.5252    0.4923   -0.3867 C   0  0  0  0  0  0  0  0  0  0  0  0
   -8.3445    1.5675    0.3481 C   0  0  0  0  0  0  0  0  0  0  0  0
   -8.0089    1.3790    1.8368 C   0  0  0  0  0  0  0  0  0  0  0  0
   -8.8277    1.6730    2.4905 H   0  0  0  0  0  0  0  0  0  0  0  0
   -7.1263    1.9631    2.1148 H   0  0  0  0  0  0  0  0  0  0  0  0
   -9.4080    1.3752    0.1861 H   0  0  0  0  0  0  0  0  0  0  0  0
   -8.1235    2.5707   -0.0081 H   0  0  0  0  0  0  0  0  0  0  0  0
   -8.0175    0.1407   -1.2951 H   0  0  0  0  0  0  0  0  0  0  0  0
   -6.5375    0.8672   -0.6661 H   0  0  0  0  0  0  0  0  0  0  0  0
   -7.4505   -6.4523    0.4885 C   0  0  0  0  0  0  0  0  0  0  0  0
   -7.4026   -6.8885   -0.5129 H   0  0  0  0  0  0  0  0  0  0  0  0
   -7.5549   -7.2606    1.2188 H   0  0  0  0  0  0  0  0  0  0  0  0
  6 36  1  0  0  0  0
  3 11  1  0  0  0  0
  2 16  1  0  0  0  0
 34 35  1  0  0  0  0
 25 44  1  0  0  0  0
  1  2  4  0  0  0  0
  3  4  4  0  0  0  0
 45 46  4  0  0  0  0
 42 43  4  0  0  0  0
 44 45  4  0  0  0  0
 43 44  4  0  0  0  0
 54 62  1  0  0  0  0
 55 64  1  0  0  0  0
  5 33  1  0  0  0  0
 41 42  4  0  0  0  0
 41 46  4  0  0  0  0
 36 40  1  0  0  0  0
 53 58  4  0  0  0  0
  1  6  4  0  0  0  0
 54 55  4  0  0  0  0
  4  5  4  0  0  0  0
 43 49  1  0  0  0  0
 56 57  4  0  0  0  0
 11 12  1  0  0  0  0
 26 27  1  0  0  0  0
 53 54  4  0  0  0  0
 55 56  4  0  0  0  0
 17 71  1  0  0  0  0
 17 18  1  0  0  0  0
  5  6  4  0  0  0  0
 57 58  4  0  0  0  0
 63 64  1  0  0  0  0
 16 71  1  0  0  0  0
 40 41  1  0  0  0  0
 62 63  1  0  0  0  0
  2  3  4  0  0  0  0
  1  7  1  0  0  0  0
  4  9  1  0  0  0  0
 42 47  1  0  0  0  0
 45 50  1  0  0  0  0
 46 51  1  0  0  0  0
 37 58  1  0  0  0  0
 39 57  1  0  0  0  0
 34 38  1  0  0  0  0
 53 60  1  0  0  0  0
 40 48  1  0  0  0  0
 56 59  1  0  0  0  0
 63 68  1  0  0  0  0
 12 14  1  0  0  0  0
 64 65  1  0  0  0  0
 17 22  1  0  0  0  0
 18 20  1  0  0  0  0
 62 69  1  0  0  0  0
 12 15  1  0  0  0  0
 12 13  1  0  0  0  0
 27 31  1  0  0  0  0
 62 70  1  0  0  0  0
 63 67  1  0  0  0  0
 71 72  1  0  0  0  0
 26 29  1  0  0  0  0
  8 28  1  0  0  0  0
 64 66  1  0  0  0  0
 71 73  1  0  0  0  0
 26 30  1  0  0  0  0
 18 21  1  0  0  0  0
 17 19  1  0  0  0  0
 27 32  1  0  0  0  0
 10 28  1  0  0  0  0
 23 24  1  0  0  0  0
 18 23  1  0  0  0  0
 27 28  1  0  0  0  0
 23 26  1  0  0  0  0
 33 34  2  0  0  0  0
 35 36  2  0  0  0  0
 52 28  1  0  0  0  0
 52 61  1  0  0  0  0
 52 23  1  0  0  0  0
 52 54  1  0  0  0  0
 52 55  1  0  0  0  0
 52 53  1  0  0  0  0
 52 56  1  0  0  0  0
M  END
$$$$
