compound_73
  GFN2-xTB geometry (ORCA XTB2, DDCOSMO(water))

 68 75  0  0  0  0  0  0  0  0999 V2000
   -0.5590   -2.8498    1.1776 Ru  0  0  0  0  0  0  0  0  0  0  0  0
    1.6836   -3.0998   -0.6712 C   0  0  0  0  0  0  0  0  0  0  0  0
    2.7550   -3.7214   -1.3125 C   0  0  0  0  0  0  0  0  0  0  0  0
    3.1313   -5.0002   -0.9539 C   0  0  0  0  0  0  0  0  0  0  0  0
    2.3908   -5.6189    0.0430 C   0  0  0  0  0  0  0  0  0  0  0  0
    1.3417   -4.9677    0.6595 C   0  0  0  0  0  0  0  0  0  0  0  0
    1.0024   -3.7246    0.3212 N   0  0  0  0  0  0  0  0  0  0  0  0
    2.0333   -4.3397    3.6076 H   0  0  0  0  0  0  0  0  0  0  0  0
    4.6506    2.3630   -9.8127 H   0  0  0  0  0  0  0  0  0  0  0  0
    2.6915   -6.8772    0.4335 F   0  0  0  0  0  0  0  0  0  0  0  0
    0.7606   -5.4674    1.4240 H   0  0  0  0  0  0  0  0  0  0  0  0
    1.1242   -1.7979   -0.9806 C   0  0  0  0  0  0  0  0  0  0  0  0
    1.5987   -0.9267   -1.9585 C   0  0  0  0  0  0  0  0  0  0  0  0
    0.9278    0.2598   -2.2193 C   0  0  0  0  0  0  0  0  0  0  0  0
   -0.2281    0.5471   -1.4905 C   0  0  0  0  0  0  0  0  0  0  0  0
   -0.6930   -0.3158   -0.5133 C   0  0  0  0  0  0  0  0  0  0  0  0
   -0.0251   -1.4958   -0.2252 C   0  0  0  0  0  0  0  0  0  0  0  0
    2.4715   -1.1829   -2.5376 H   0  0  0  0  0  0  0  0  0  0  0  0
    3.2789   -3.1995   -2.0945 H   0  0  0  0  0  0  0  0  0  0  0  0
   -0.7590    1.4680   -1.6815 H   0  0  0  0  0  0  0  0  0  0  0  0
   -1.5975   -0.0594    0.0197 H   0  0  0  0  0  0  0  0  0  0  0  0
   -1.9180   -4.0192   -0.4860 Cl  0  0  0  0  0  0  0  0  0  0  0  0
   -0.6180   -1.2849    2.7486 C   0  0  0  0  0  0  0  0  0  0  0  0
   -1.9702   -1.6893    2.6095 C   0  0  0  0  0  0  0  0  0  0  0  0
   -2.2402   -3.0674    2.7454 C   0  0  0  0  0  0  0  0  0  0  0  0
   -1.2695   -3.9782    3.2363 C   0  0  0  0  0  0  0  0  0  0  0  0
    0.0422   -3.5626    3.4527 C   0  0  0  0  0  0  0  0  0  0  0  0
    0.3859   -2.2223    3.1021 C   0  0  0  0  0  0  0  0  0  0  0  0
   -2.6236    0.2614    2.0851 H   0  0  0  0  0  0  0  0  0  0  0  0
   -0.3632   -0.2324    2.6757 H   0  0  0  0  0  0  0  0  0  0  0  0
   -3.2613   -3.4210    2.6357 H   0  0  0  0  0  0  0  0  0  0  0  0
    1.3931   -1.8692    3.3011 H   0  0  0  0  0  0  0  0  0  0  0  0
   -1.5730   -4.9877    3.4842 H   0  0  0  0  0  0  0  0  0  0  0  0
   -3.0754   -0.6745    2.4289 C   0  0  0  0  0  0  0  0  0  0  0  0
   -4.1107   -1.1214    1.3937 C   0  0  0  0  0  0  0  0  0  0  0  0
   -3.7384   -0.4158    3.7867 C   0  0  0  0  0  0  0  0  0  0  0  0
   -3.0058   -0.0556    4.5043 H   0  0  0  0  0  0  0  0  0  0  0  0
   -4.1834   -1.3301    4.1728 H   0  0  0  0  0  0  0  0  0  0  0  0
   -4.5198    0.3311    3.6784 H   0  0  0  0  0  0  0  0  0  0  0  0
   -3.6195   -1.5208    0.5031 H   0  0  0  0  0  0  0  0  0  0  0  0
   -4.7315   -0.2807    1.0971 H   0  0  0  0  0  0  0  0  0  0  0  0
   -4.7610   -1.8958    1.7938 H   0  0  0  0  0  0  0  0  0  0  0  0
    1.0631   -4.4545    4.0861 C   0  0  0  0  0  0  0  0  0  0  0  0
    0.7618   -5.4983    4.0421 H   0  0  0  0  0  0  0  0  0  0  0  0
    1.1718   -4.1741    5.1341 H   0  0  0  0  0  0  0  0  0  0  0  0
    1.4162    1.1850   -3.2528 C   0  0  0  0  0  0  0  0  0  0  0  0
    0.5289    1.8329   -4.1089 C   0  0  0  0  0  0  0  0  0  0  0  0
    0.9920    2.6953   -5.0837 C   0  0  0  0  0  0  0  0  0  0  0  0
    2.3510    2.9452   -5.2301 C   0  0  0  0  0  0  0  0  0  0  0  0
    3.2361    2.3003   -4.3746 C   0  0  0  0  0  0  0  0  0  0  0  0
    2.7790    1.4326   -3.4020 C   0  0  0  0  0  0  0  0  0  0  0  0
   -0.5303    1.6401   -4.0223 H   0  0  0  0  0  0  0  0  0  0  0  0
    0.2883    3.1835   -5.7428 H   0  0  0  0  0  0  0  0  0  0  0  0
    3.4811    0.9557   -2.7349 H   0  0  0  0  0  0  0  0  0  0  0  0
    4.2962    2.4856   -4.4711 H   0  0  0  0  0  0  0  0  0  0  0  0
    2.8530    3.8468   -6.3193 C   0  0  0  0  0  0  0  0  0  0  0  0
    3.1224    3.0446   -7.5984 C   0  0  0  0  0  0  0  0  0  0  0  0
    3.6302    3.9308   -8.7327 C   0  0  0  0  0  0  0  0  0  0  0  0
    3.8997    3.1274   -9.9994 C   0  0  0  0  0  0  0  0  0  0  0  0
    2.8892    4.7049   -8.9447 H   0  0  0  0  0  0  0  0  0  0  0  0
    4.2586    3.7755  -10.7952 H   0  0  0  0  0  0  0  0  0  0  0  0
    2.9906    2.6362  -10.3392 H   0  0  0  0  0  0  0  0  0  0  0  0
    3.7773    4.3343   -6.0033 H   0  0  0  0  0  0  0  0  0  0  0  0
    2.1127    4.6202   -6.5332 H   0  0  0  0  0  0  0  0  0  0  0  0
    2.2006    2.5466   -7.9087 H   0  0  0  0  0  0  0  0  0  0  0  0
    3.8597    2.2675   -7.3842 H   0  0  0  0  0  0  0  0  0  0  0  0
    4.5491    4.4296   -8.4167 H   0  0  0  0  0  0  0  0  0  0  0  0
    3.9522   -5.5133   -1.4260 H   0  0  0  0  0  0  0  0  0  0  0  0
  2 12  1  0  0  0  0
 14 46  1  0  0  0  0
  5 10  1  0  0  0  0
  5  6  4  0  0  0  0
  3  4  4  0  0  0  0
 50 51  4  0  0  0  0
 47 48  4  0  0  0  0
 15 16  4  0  0  0  0
 16 17  4  0  0  0  0
 27 43  1  0  0  0  0
  4  5  4  0  0  0  0
 13 14  4  0  0  0  0
 48 49  4  0  0  0  0
 49 50  4  0  0  0  0
 49 56  1  0  0  0  0
 46 47  4  0  0  0  0
 26 27  4  0  0  0  0
 12 13  4  0  0  0  0
 46 51  4  0  0  0  0
  2  3  4  0  0  0  0
  6  7  4  0  0  0  0
 14 15  4  0  0  0  0
 24 34  1  0  0  0  0
 12 17  4  0  0  0  0
 24 25  4  0  0  0  0
 58 59  1  0  0  0  0
 57 58  1  0  0  0  0
 23 24  4  0  0  0  0
 23 28  4  0  0  0  0
 25 26  4  0  0  0  0
 34 35  1  0  0  0  0
  2  7  4  0  0  0  0
 34 36  1  0  0  0  0
 56 57  1  0  0  0  0
 27 28  4  0  0  0  0
  3 19  1  0  0  0  0
  4 68  1  0  0  0  0
 13 18  1  0  0  0  0
 51 54  1  0  0  0  0
 15 20  1  0  0  0  0
 47 52  1  0  0  0  0
 50 55  1  0  0  0  0
 48 53  1  0  0  0  0
 16 21  1  0  0  0  0
  6 11  1  0  0  0  0
 26 33  1  0  0  0  0
 23 30  1  0  0  0  0
 28 32  1  0  0  0  0
 25 31  1  0  0  0  0
 35 41  1  0  0  0  0
 36 39  1  0  0  0  0
 36 37  1  0  0  0  0
 59 61  1  0  0  0  0
 43 44  1  0  0  0  0
 35 42  1  0  0  0  0
 36 38  1  0  0  0  0
  9 59  1  0  0  0  0
 59 62  1  0  0  0  0
  8 43  1  0  0  0  0
 43 45  1  0  0  0  0
 56 63  1  0  0  0  0
 56 64  1  0  0  0  0
 58 67  1  0  0  0  0
 58 60  1  0  0  0  0
 57 66  1  0  0  0  0
 35 40  1  0  0  0  0
 57 65  1  0  0  0  0
 29 34  1  0  0  0  0
  1  7  1  0  0  0  0
  1 22  1  0  0  0  0
  1 24  1  0  0  0  0
  1 27  1  0  0  0  0
  1 26  1  0  0  0  0
  1 17  1  0  0  0  0
  1 23  1  0  0  0  0
M  END
$$$$
