compound_67
  GFN2-xTB geometry (ORCA XTB2, DDCOSMO(water))

 68 75  0  0  0  0  0  0  0  0999 V2000
   -0.5220   -2.8395    1.1827 Ru  0  0  0  0  0  0  0  0  0  0  0  0
    1.7144   -3.0995   -0.6710 C   0  0  0  0  0  0  0  0  0  0  0  0
    2.7715   -3.7746   -1.2885 C   0  0  0  0  0  0  0  0  0  0  0  0
    3.1452   -5.0466   -0.9074 C   0  0  0  0  0  0  0  0  0  0  0  0
    2.4212   -5.6528    0.1104 C   0  0  0  0  0  0  0  0  0  0  0  0
    1.3851   -4.9548    0.6957 C   0  0  0  0  0  0  0  0  0  0  0  0
    1.0471   -3.7163    0.3353 N   0  0  0  0  0  0  0  0  0  0  0  0
    2.0397   -4.3214    3.6313 H   0  0  0  0  0  0  0  0  0  0  0  0
    3.4571   -3.1848   -2.2927 F   0  0  0  0  0  0  0  0  0  0  0  0
    2.6583   -6.6493    0.4402 H   0  0  0  0  0  0  0  0  0  0  0  0
    0.7880   -5.4057    1.4779 H   0  0  0  0  0  0  0  0  0  0  0  0
    1.1608   -1.7959   -0.9883 C   0  0  0  0  0  0  0  0  0  0  0  0
    1.6237   -0.9209   -1.9697 C   0  0  0  0  0  0  0  0  0  0  0  0
    0.9537    0.2697   -2.2155 C   0  0  0  0  0  0  0  0  0  0  0  0
   -0.1910    0.5588   -1.4709 C   0  0  0  0  0  0  0  0  0  0  0  0
   -0.6451   -0.3077   -0.4927 C   0  0  0  0  0  0  0  0  0  0  0  0
    0.0215   -1.4911   -0.2162 C   0  0  0  0  0  0  0  0  0  0  0  0
    2.4858   -1.1713   -2.5667 H   0  0  0  0  0  0  0  0  0  0  0  0
    3.9652   -5.5382   -1.4036 H   0  0  0  0  0  0  0  0  0  0  0  0
   -0.7201    1.4829   -1.6510 H   0  0  0  0  0  0  0  0  0  0  0  0
   -1.5420   -0.0512    0.0529 H   0  0  0  0  0  0  0  0  0  0  0  0
   -1.8631   -3.9964   -0.5054 Cl  0  0  0  0  0  0  0  0  0  0  0  0
   -0.6184   -1.2704    2.7552 C   0  0  0  0  0  0  0  0  0  0  0  0
   -1.9644   -1.6858    2.5962 C   0  0  0  0  0  0  0  0  0  0  0  0
   -2.2255   -3.0664    2.7274 C   0  0  0  0  0  0  0  0  0  0  0  0
   -1.2539   -3.9696    3.2291 C   0  0  0  0  0  0  0  0  0  0  0  0
    0.0515   -3.5423    3.4666 C   0  0  0  0  0  0  0  0  0  0  0  0
    0.3882   -2.1985    3.1243 C   0  0  0  0  0  0  0  0  0  0  0  0
   -2.6270    0.2620    2.0707 H   0  0  0  0  0  0  0  0  0  0  0  0
   -0.3718   -0.2157    2.6859 H   0  0  0  0  0  0  0  0  0  0  0  0
   -3.2425   -3.4270    2.6034 H   0  0  0  0  0  0  0  0  0  0  0  0
    1.3887   -1.8360    3.3392 H   0  0  0  0  0  0  0  0  0  0  0  0
   -1.5526   -4.9816    3.4720 H   0  0  0  0  0  0  0  0  0  0  0  0
   -3.0754   -0.6797    2.4033 C   0  0  0  0  0  0  0  0  0  0  0  0
   -4.0916   -1.1300    1.3508 C   0  0  0  0  0  0  0  0  0  0  0  0
   -3.7610   -0.4333    3.7523 C   0  0  0  0  0  0  0  0  0  0  0  0
   -3.0421   -0.0710    4.4826 H   0  0  0  0  0  0  0  0  0  0  0  0
   -4.2045   -1.3530    4.1267 H   0  0  0  0  0  0  0  0  0  0  0  0
   -4.5465    0.3081    3.6359 H   0  0  0  0  0  0  0  0  0  0  0  0
   -3.5842   -1.5173    0.4640 H   0  0  0  0  0  0  0  0  0  0  0  0
   -4.7171   -0.2938    1.0514 H   0  0  0  0  0  0  0  0  0  0  0  0
   -4.7387   -1.9142    1.7363 H   0  0  0  0  0  0  0  0  0  0  0  0
    1.0704   -4.4258    4.1138 C   0  0  0  0  0  0  0  0  0  0  0  0
    0.7642   -5.4681    4.0887 H   0  0  0  0  0  0  0  0  0  0  0  0
    1.1817   -4.1257    5.1560 H   0  0  0  0  0  0  0  0  0  0  0  0
    1.4359    1.1964   -3.2500 C   0  0  0  0  0  0  0  0  0  0  0  0
    0.5430    1.8595   -4.0886 C   0  0  0  0  0  0  0  0  0  0  0  0
    1.0006    2.7238   -5.0642 C   0  0  0  0  0  0  0  0  0  0  0  0
    2.3597    2.9610   -5.2287 C   0  0  0  0  0  0  0  0  0  0  0  0
    3.2504    2.3007   -4.3910 C   0  0  0  0  0  0  0  0  0  0  0  0
    2.7989    1.4309   -3.4178 C   0  0  0  0  0  0  0  0  0  0  0  0
   -0.5167    1.6762   -3.9880 H   0  0  0  0  0  0  0  0  0  0  0  0
    0.2922    3.2232   -5.7095 H   0  0  0  0  0  0  0  0  0  0  0  0
    3.5062    0.9387   -2.7669 H   0  0  0  0  0  0  0  0  0  0  0  0
    4.3111    2.4742   -4.5016 H   0  0  0  0  0  0  0  0  0  0  0  0
    2.8565    3.8646   -6.3186 C   0  0  0  0  0  0  0  0  0  0  0  0
    3.1174    3.0648   -7.6010 C   0  0  0  0  0  0  0  0  0  0  0  0
    3.6259    3.9520   -8.7344 C   0  0  0  0  0  0  0  0  0  0  0  0
    3.8862    3.1512  -10.0046 C   0  0  0  0  0  0  0  0  0  0  0  0
    2.8883    4.7307   -8.9408 H   0  0  0  0  0  0  0  0  0  0  0  0
    4.2467    3.7996  -10.7993 H   0  0  0  0  0  0  0  0  0  0  0  0
    2.9730    2.6666  -10.3428 H   0  0  0  0  0  0  0  0  0  0  0  0
    3.7835    4.3493   -6.0065 H   0  0  0  0  0  0  0  0  0  0  0  0
    2.1161    4.6395   -6.5262 H   0  0  0  0  0  0  0  0  0  0  0  0
    2.1922    2.5721   -7.9092 H   0  0  0  0  0  0  0  0  0  0  0  0
    3.8513    2.2832   -7.3913 H   0  0  0  0  0  0  0  0  0  0  0  0
    4.5487    4.4443   -8.4199 H   0  0  0  0  0  0  0  0  0  0  0  0
    4.6328    2.3813   -9.8226 H   0  0  0  0  0  0  0  0  0  0  0  0
  2 12  1  0  0  0  0
 14 46  1  0  0  0  0
  3  9  1  0  0  0  0
  3  4  4  0  0  0  0
  5  6  4  0  0  0  0
 50 51  4  0  0  0  0
 47 48  4  0  0  0  0
 15 16  4  0  0  0  0
 16 17  4  0  0  0  0
 27 43  1  0  0  0  0
 13 14  4  0  0  0  0
  4  5  4  0  0  0  0
 48 49  4  0  0  0  0
 49 50  4  0  0  0  0
 49 56  1  0  0  0  0
 46 47  4  0  0  0  0
 46 51  4  0  0  0  0
 12 13  4  0  0  0  0
 26 27  4  0  0  0  0
 14 15  4  0  0  0  0
  6  7  4  0  0  0  0
  2  3  4  0  0  0  0
 24 34  1  0  0  0  0
 12 17  4  0  0  0  0
 24 25  4  0  0  0  0
 58 59  1  0  0  0  0
 57 58  1  0  0  0  0
 23 24  4  0  0  0  0
 23 28  4  0  0  0  0
 25 26  4  0  0  0  0
 34 35  1  0  0  0  0
  2  7  4  0  0  0  0
 34 36  1  0  0  0  0
 56 57  1  0  0  0  0
 27 28  4  0  0  0  0
  5 10  1  0  0  0  0
  4 19  1  0  0  0  0
 13 18  1  0  0  0  0
 51 54  1  0  0  0  0
 15 20  1  0  0  0  0
 47 52  1  0  0  0  0
 50 55  1  0  0  0  0
 48 53  1  0  0  0  0
 16 21  1  0  0  0  0
  6 11  1  0  0  0  0
 26 33  1  0  0  0  0
 23 30  1  0  0  0  0
 28 32  1  0  0  0  0
 25 31  1  0  0  0  0
 35 41  1  0  0  0  0
 36 39  1  0  0  0  0
 43 44  1  0  0  0  0
 36 37  1  0  0  0  0
 59 61  1  0  0  0  0
 35 42  1  0  0  0  0
 36 38  1  0  0  0  0
 59 68  1  0  0  0  0
 59 62  1  0  0  0  0
  8 43  1  0  0  0  0
 43 45  1  0  0  0  0
 56 64  1  0  0  0  0
 56 63  1  0  0  0  0
 58 67  1  0  0  0  0
 58 60  1  0  0  0  0
 57 66  1  0  0  0  0
 35 40  1  0  0  0  0
 57 65  1  0  0  0  0
 29 34  1  0  0  0  0
  1  7  1  0  0  0  0
  1 22  1  0  0  0  0
  1 24  1  0  0  0  0
  1 27  1  0  0  0  0
  1 26  1  0  0  0  0
  1 17  1  0  0  0  0
  1 23  1  0  0  0  0
M  END
$$$$
