compound_7
  GFN2-xTB geometry (ORCA XTB2, DDCOSMO(water))

 68 76  0  0  0  0  0  0  0  0999 V2000
   -1.0807   -0.5503   -1.9185 C   0  0  0  0  0  0  0  0  0  0  0  0
   -1.3396   -0.6940   -0.5309 C   0  0  0  0  0  0  0  0  0  0  0  0
   -0.3771   -1.4071    0.2296 C   0  0  0  0  0  0  0  0  0  0  0  0
    0.7560   -1.9377   -0.4192 C   0  0  0  0  0  0  0  0  0  0  0  0
    1.0002   -1.8034   -1.8228 C   0  0  0  0  0  0  0  0  0  0  0  0
    0.0543   -1.0910   -2.5438 C   0  0  0  0  0  0  0  0  0  0  0  0
    4.0487   -4.1734    0.3532 H   0  0  0  0  0  0  0  0  0  0  0  0
    5.4255   -4.6097   -1.6489 H   0  0  0  0  0  0  0  0  0  0  0  0
   -1.6493   -1.4049    3.2311 H   0  0  0  0  0  0  0  0  0  0  0  0
    4.7796   -3.7391   -3.8428 H   0  0  0  0  0  0  0  0  0  0  0  0
   -2.4604   -0.2116    0.1653 C   0  0  0  0  0  0  0  0  0  0  0  0
   -2.5615   -0.4673    1.5150 C   0  0  0  0  0  0  0  0  0  0  0  0
   -1.5636   -1.1891    2.1746 C   0  0  0  0  0  0  0  0  0  0  0  0
   -0.4930   -1.6472    1.5511 N   0  0  0  0  0  0  0  0  0  0  0  0
   -3.2172    0.3415   -0.3689 H   0  0  0  0  0  0  0  0  0  0  0  0
   -3.4117   -0.1145    2.0749 H   0  0  0  0  0  0  0  0  0  0  0  0
    2.2235   -2.5173   -2.0343 C   0  0  0  0  0  0  0  0  0  0  0  0
    2.6053   -3.0214   -0.7536 C   0  0  0  0  0  0  0  0  0  0  0  0
    1.6951   -2.6458    0.2086 N   0  0  0  0  0  0  0  0  0  0  0  0
    2.7183   -2.3941   -4.1180 H   0  0  0  0  0  0  0  0  0  0  0  0
    3.7611   -3.7790   -0.6088 C   0  0  0  0  0  0  0  0  0  0  0  0
    4.5242   -4.0226   -1.7336 C   0  0  0  0  0  0  0  0  0  0  0  0
    4.1579   -3.5286   -2.9858 C   0  0  0  0  0  0  0  0  0  0  0  0
    3.0104   -2.7771   -3.1501 C   0  0  0  0  0  0  0  0  0  0  0  0
   -0.0178   -0.7546   -3.9795 C   0  0  0  0  0  0  0  0  0  0  0  0
   -1.1819   -0.0427   -4.1307 N   0  0  0  0  0  0  0  0  0  0  0  0
   -1.8751    0.1215   -2.9267 C   0  0  0  0  0  0  0  0  0  0  0  0
   -2.9309    0.7256   -2.8381 O   0  0  0  0  0  0  0  0  0  0  0  0
    0.7597   -1.0224   -4.8764 O   0  0  0  0  0  0  0  0  0  0  0  0
    0.8335   -5.9971    2.4893 O   0  0  0  0  0  0  0  0  0  0  0  0
    1.1794   -2.6574    2.2483 Ru  0  0  0  0  0  0  0  0  0  0  0  0
    0.0866   -4.6585    2.0475 P   0  0  0  0  0  0  0  0  0  0  0  0
   -1.1186   -4.6281    3.0954 O   0  0  0  0  0  0  0  0  0  0  0  0
    2.2766   -0.6071    2.5247 S   0  0  0  0  0  0  0  0  0  0  0  0
    2.4010   -0.4099    4.3624 C   0  0  0  0  0  0  0  0  0  0  0  0
    1.1844   -0.9401    5.0874 C   0  0  0  0  0  0  0  0  0  0  0  0
    0.4999   -2.5346    4.4662 S   0  0  0  0  0  0  0  0  0  0  0  0
    1.5698   -3.7977    5.2481 C   0  0  0  0  0  0  0  0  0  0  0  0
    3.0073   -3.8010    4.7869 C   0  0  0  0  0  0  0  0  0  0  0  0
    3.1809   -3.6874    2.9436 S   0  0  0  0  0  0  0  0  0  0  0  0
    4.4734   -2.3738    2.7912 C   0  0  0  0  0  0  0  0  0  0  0  0
    3.9936   -1.1007    2.1251 C   0  0  0  0  0  0  0  0  0  0  0  0
    4.6359   -0.2603    2.3893 H   0  0  0  0  0  0  0  0  0  0  0  0
    2.4900    0.6632    4.5338 H   0  0  0  0  0  0  0  0  0  0  0  0
    3.3162   -0.8966    4.6817 H   0  0  0  0  0  0  0  0  0  0  0  0
    0.3438   -0.2544    4.9784 H   0  0  0  0  0  0  0  0  0  0  0  0
    1.3941   -1.0797    6.1467 H   0  0  0  0  0  0  0  0  0  0  0  0
    1.0681   -4.7327    4.9915 H   0  0  0  0  0  0  0  0  0  0  0  0
    1.5118   -3.6401    6.3246 H   0  0  0  0  0  0  0  0  0  0  0  0
    3.4750   -4.7475    5.0569 H   0  0  0  0  0  0  0  0  0  0  0  0
    3.5682   -2.9885    5.2386 H   0  0  0  0  0  0  0  0  0  0  0  0
    4.8766   -2.1936    3.7842 H   0  0  0  0  0  0  0  0  0  0  0  0
    5.2589   -2.8182    2.1801 H   0  0  0  0  0  0  0  0  0  0  0  0
    3.9749   -1.2047    1.0385 H   0  0  0  0  0  0  0  0  0  0  0  0
   -0.5549   -5.2318    0.6683 O   0  0  0  0  0  0  0  0  0  0  0  0
   -1.5047    0.3285   -5.0113 H   0  0  0  0  0  0  0  0  0  0  0  0
   -1.9656   -5.7630    3.3211 C   0  0  0  0  0  0  0  0  0  0  0  0
   -1.4701   -6.4687    3.9856 H   0  0  0  0  0  0  0  0  0  0  0  0
   -2.2083   -6.2622    2.3832 H   0  0  0  0  0  0  0  0  0  0  0  0
   -2.8722   -5.3821    3.7863 H   0  0  0  0  0  0  0  0  0  0  0  0
   -1.4818   -4.5147   -0.1291 C   0  0  0  0  0  0  0  0  0  0  0  0
   -0.9601   -3.9493   -0.9032 H   0  0  0  0  0  0  0  0  0  0  0  0
   -2.0875   -3.8368    0.4742 H   0  0  0  0  0  0  0  0  0  0  0  0
   -2.1289   -5.2531   -0.6017 H   0  0  0  0  0  0  0  0  0  0  0  0
    1.9112   -6.5546    1.7289 C   0  0  0  0  0  0  0  0  0  0  0  0
    2.6710   -6.8794    2.4378 H   0  0  0  0  0  0  0  0  0  0  0  0
    2.3250   -5.8229    1.0359 H   0  0  0  0  0  0  0  0  0  0  0  0
    1.5406   -7.4084    1.1627 H   0  0  0  0  0  0  0  0  0  0  0  0
 30 32  1  0  0  0  0
 32 33  1  0  0  0  0
  2  3  1  0  0  0  0
 32 55  1  0  0  0  0
  5 17  1  0  0  0  0
  1 27  1  0  0  0  0
  6 25  1  0  0  0  0
  4 19  1  0  0  0  0
 11 12  4  0  0  0  0
 21 22  4  0  0  0  0
 23 24  4  0  0  0  0
 13 14  4  0  0  0  0
  5  6  4  0  0  0  0
 18 21  4  0  0  0  0
 17 24  4  0  0  0  0
 22 23  4  0  0  0  0
 12 13  4  0  0  0  0
 38 39  1  0  0  0  0
 35 36  1  0  0  0  0
 41 42  1  0  0  0  0
  1  6  4  0  0  0  0
  2 11  4  0  0  0  0
  3  4  4  0  0  0  0
 25 26  1  0  0  0  0
  3 14  4  0  0  0  0
 18 19  1  0  0  0  0
 55 61  1  0  0  0  0
  1  2  4  0  0  0  0
 17 18  4  0  0  0  0
 30 65  1  0  0  0  0
  4  5  4  0  0  0  0
 33 57  1  0  0  0  0
 26 27  1  0  0  0  0
 12 16  1  0  0  0  0
  7 21  1  0  0  0  0
 11 15  1  0  0  0  0
  8 22  1  0  0  0  0
 26 56  1  0  0  0  0
 10 23  1  0  0  0  0
 20 24  1  0  0  0  0
  9 13  1  0  0  0  0
 37 38  1  0  0  0  0
 34 42  1  0  0  0  0
 35 45  1  0  0  0  0
 39 51  1  0  0  0  0
 41 52  1  0  0  0  0
 57 60  1  0  0  0  0
 57 58  1  0  0  0  0
 65 66  1  0  0  0  0
 36 47  1  0  0  0  0
 65 68  1  0  0  0  0
 65 67  1  0  0  0  0
 38 49  1  0  0  0  0
 36 37  1  0  0  0  0
 61 64  1  0  0  0  0
 39 50  1  0  0  0  0
 57 59  1  0  0  0  0
 41 53  1  0  0  0  0
 36 46  1  0  0  0  0
 42 43  1  0  0  0  0
 35 44  1  0  0  0  0
 61 63  1  0  0  0  0
 61 62  1  0  0  0  0
 38 48  1  0  0  0  0
 42 54  1  0  0  0  0
 40 41  1  0  0  0  0
 34 35  1  0  0  0  0
 39 40  1  0  0  0  0
 25 29  2  0  0  0  0
 27 28  2  0  0  0  0
 31 40  1  0  0  0  0
 31 14  1  0  0  0  0
 31 19  1  0  0  0  0
 31 34  1  0  0  0  0
 31 37  1  0  0  0  0
 31 32  1  0  0  0  0
M  END
$$$$
