compound_131
  GFN2-xTB geometry (ORCA XTB2, DDCOSMO(water))

 74 85  0  0  0  0  0  0  0  0999 V2000
   20.2164   -3.0667    1.2455 Ru  0  0  0  0  0  0  0  0  0  0  0  0
   20.2438    1.8103    1.7262 C   0  0  0  0  0  0  0  0  0  0  0  0
   19.0307    1.0854    1.9139 C   0  0  0  0  0  0  0  0  0  0  0  0
   19.0156   -0.3286    1.8408 C   0  0  0  0  0  0  0  0  0  0  0  0
   20.0869   -1.0174    1.5680 N   0  0  0  0  0  0  0  0  0  0  0  0
   23.6623   -0.7462    0.8337 C   0  0  0  0  0  0  0  0  0  0  0  0
   23.8450    0.6176    0.9731 C   0  0  0  0  0  0  0  0  0  0  0  0
   22.7928    1.5044    1.3026 C   0  0  0  0  0  0  0  0  0  0  0  0
   21.4491    1.0532    1.4834 C   0  0  0  0  0  0  0  0  0  0  0  0
   21.2652   -0.3482    1.3839 C   0  0  0  0  0  0  0  0  0  0  0  0
   22.3330   -1.1973    1.0607 C   0  0  0  0  0  0  0  0  0  0  0  0
   25.5037   -5.5848   -0.0090 H   0  0  0  0  0  0  0  0  0  0  0  0
   18.0798   -0.8580    1.9838 H   0  0  0  0  0  0  0  0  0  0  0  0
   27.1276   -3.7625   -0.1844 H   0  0  0  0  0  0  0  0  0  0  0  0
   23.1273   -5.1262    0.5321 H   0  0  0  0  0  0  0  0  0  0  0  0
   16.8583    3.6529    2.3674 H   0  0  0  0  0  0  0  0  0  0  0  0
   16.9258    1.1764    2.2858 H   0  0  0  0  0  0  0  0  0  0  0  0
   22.1987   -2.5214    0.9380 N   0  0  0  0  0  0  0  0  0  0  0  0
   23.4516   -3.0099    0.6429 C   0  0  0  0  0  0  0  0  0  0  0  0
   24.3986   -1.9442    0.5541 C   0  0  0  0  0  0  0  0  0  0  0  0
   23.8454   -4.3259    0.4433 C   0  0  0  0  0  0  0  0  0  0  0  0
   25.1728   -4.5698    0.1483 C   0  0  0  0  0  0  0  0  0  0  0  0
   26.0999   -3.5324    0.0499 C   0  0  0  0  0  0  0  0  0  0  0  0
   25.7273   -2.2177    0.2518 C   0  0  0  0  0  0  0  0  0  0  0  0
   26.4412   -1.4105    0.1830 H   0  0  0  0  0  0  0  0  0  0  0  0
   17.8207    1.7641    2.1493 C   0  0  0  0  0  0  0  0  0  0  0  0
   17.7853    3.1324    2.1873 C   0  0  0  0  0  0  0  0  0  0  0  0
   18.9638    3.8527    1.9801 C   0  0  0  0  0  0  0  0  0  0  0  0
   20.1586    3.2109    1.7546 C   0  0  0  0  0  0  0  0  0  0  0  0
   21.0433    3.8003    1.6012 H   0  0  0  0  0  0  0  0  0  0  0  0
   18.9409    4.9312    1.9944 H   0  0  0  0  0  0  0  0  0  0  0  0
   23.4164    2.8265    1.4456 C   0  0  0  0  0  0  0  0  0  0  0  0
   24.7642    2.6707    1.1340 N   0  0  0  0  0  0  0  0  0  0  0  0
   25.1027    1.3772    0.8459 C   0  0  0  0  0  0  0  0  0  0  0  0
   22.9809    3.9093    1.7888 O   0  0  0  0  0  0  0  0  0  0  0  0
   26.2159    0.9901    0.5544 O   0  0  0  0  0  0  0  0  0  0  0  0
   25.4159    3.4413    1.1617 H   0  0  0  0  0  0  0  0  0  0  0  0
   18.7226   -5.6908    1.5130 H   0  0  0  0  0  0  0  0  0  0  0  0
   19.8523   -3.6721   -0.9039 C   0  0  0  0  0  0  0  0  0  0  0  0
   20.4179   -3.4488   -1.7979 H   0  0  0  0  0  0  0  0  0  0  0  0
   20.0059   -4.8437   -0.0951 C   0  0  0  0  0  0  0  0  0  0  0  0
   18.7304   -2.9694   -0.4469 C   0  0  0  0  0  0  0  0  0  0  0  0
   20.7398   -3.5524    4.1470 O   0  0  0  0  0  0  0  0  0  0  0  0
   20.6819   -5.6610   -0.3026 H   0  0  0  0  0  0  0  0  0  0  0  0
   18.9418   -4.8699    0.8419 C   0  0  0  0  0  0  0  0  0  0  0  0
   18.1474   -3.6901    0.6518 C   0  0  0  0  0  0  0  0  0  0  0  0
   18.2774   -2.1014   -0.9095 H   0  0  0  0  0  0  0  0  0  0  0  0
   20.5498   -3.3587    3.0258 C   0  0  0  0  0  0  0  0  0  0  0  0
   16.8339   -3.3383    1.2418 C   0  0  0  0  0  0  0  0  0  0  0  0
   16.4110   -2.1785    1.2223 O   0  0  0  0  0  0  0  0  0  0  0  0
   16.1437   -4.3518    1.7867 N   0  0  0  0  0  0  0  0  0  0  0  0
   14.8219   -4.1774    2.3414 C   0  0  0  0  0  0  0  0  0  0  0  0
   13.7380   -4.2504    1.2537 C   0  0  0  0  0  0  0  0  0  0  0  0
   12.4232   -4.0142    1.8171 N   0  0  0  0  0  0  0  0  0  0  0  0
   11.8467   -5.2182    2.3919 C   0  0  0  0  0  0  0  0  0  0  0  0
   10.5746   -4.8802    3.1621 C   0  0  0  0  0  0  0  0  0  0  0  0
    9.5627   -4.2197    2.2332 C   0  0  0  0  0  0  0  0  0  0  0  0
   10.2129   -3.0029    1.5848 C   0  0  0  0  0  0  0  0  0  0  0  0
   11.4988   -3.4122    0.8727 C   0  0  0  0  0  0  0  0  0  0  0  0
   16.4717   -5.2964    1.6631 H   0  0  0  0  0  0  0  0  0  0  0  0
   14.7725   -3.1914    2.8090 H   0  0  0  0  0  0  0  0  0  0  0  0
   14.6631   -4.9418    3.0999 H   0  0  0  0  0  0  0  0  0  0  0  0
   13.7974   -5.2220    0.7335 H   0  0  0  0  0  0  0  0  0  0  0  0
   13.9535   -3.4652    0.5233 H   0  0  0  0  0  0  0  0  0  0  0  0
   12.5753   -5.6626    3.0705 H   0  0  0  0  0  0  0  0  0  0  0  0
   11.6126   -5.9590    1.6027 H   0  0  0  0  0  0  0  0  0  0  0  0
   10.8268   -4.1922    3.9697 H   0  0  0  0  0  0  0  0  0  0  0  0
   10.1602   -5.7904    3.5975 H   0  0  0  0  0  0  0  0  0  0  0  0
    8.6720   -3.9230    2.7884 H   0  0  0  0  0  0  0  0  0  0  0  0
    9.2588   -4.9283    1.4584 H   0  0  0  0  0  0  0  0  0  0  0  0
   10.4586   -2.2702    2.3542 H   0  0  0  0  0  0  0  0  0  0  0  0
    9.5343   -2.5387    0.8678 H   0  0  0  0  0  0  0  0  0  0  0  0
   11.9766   -2.5285    0.4417 H   0  0  0  0  0  0  0  0  0  0  0  0
   11.2551   -4.1082    0.0469 H   0  0  0  0  0  0  0  0  0  0  0  0
  2  3  1  0  0  0  0
  6 20  1  0  0  0  0
  2  9  1  0  0  0  0
  8 32  1  0  0  0  0
  4  5  2  0  0  0  0
  7 34  1  0  0  0  0
 26 27  1  0  0  0  0
 11 18  1  0  0  0  0
 46 49  1  0  0  0  0
 28 29  1  0  0  0  0
 49 51  1  0  0  0  0
 23 24  4  0  0  0  0
 21 22  4  0  0  0  0
  6  7  4  0  0  0  0
 19 21  4  0  0  0  0
 20 24  4  0  0  0  0
 22 23  4  0  0  0  0
 27 28  2  0  0  0  0
 39 42  4  0  0  0  0
 10 11  4  0  0  0  0
  2 29  2  0  0  0  0
  5 10  1  0  0  0  0
 33 34  1  0  0  0  0
  3 26  2  0  0  0  0
 56 57  1  0  0  0  0
 57 58  1  0  0  0  0
 55 56  1  0  0  0  0
 18 19  1  0  0  0  0
 58 59  1  0  0  0  0
  7  8  4  0  0  0  0
  3  4  1  0  0  0  0
  9 10  4  0  0  0  0
 41 45  4  0  0  0  0
  6 11  4  0  0  0  0
 52 53  1  0  0  0  0
 19 20  4  0  0  0  0
  8  9  4  0  0  0  0
 32 33  1  0  0  0  0
 39 41  4  0  0  0  0
 29 30  1  0  0  0  0
 45 46  4  0  0  0  0
 42 46  4  0  0  0  0
 51 60  1  0  0  0  0
 16 27  1  0  0  0  0
 28 31  1  0  0  0  0
 15 21  1  0  0  0  0
 14 23  1  0  0  0  0
 12 22  1  0  0  0  0
 17 26  1  0  0  0  0
 24 25  1  0  0  0  0
 33 37  1  0  0  0  0
 41 44  1  0  0  0  0
 39 40  1  0  0  0  0
 38 45  1  0  0  0  0
 42 47  1  0  0  0  0
  4 13  1  0  0  0  0
 52 62  1  0  0  0  0
 55 65  1  0  0  0  0
 56 67  1  0  0  0  0
 58 71  1  0  0  0  0
 57 69  1  0  0  0  0
 56 68  1  0  0  0  0
 58 72  1  0  0  0  0
 52 61  1  0  0  0  0
 57 70  1  0  0  0  0
 59 73  1  0  0  0  0
 53 64  1  0  0  0  0
 53 63  1  0  0  0  0
 59 74  1  0  0  0  0
 55 66  1  0  0  0  0
 51 52  1  0  0  0  0
 53 54  1  0  0  0  0
 54 59  1  0  0  0  0
 54 55  1  0  0  0  0
 43 48  2  0  0  0  0
 34 36  2  0  0  0  0
 32 35  2  0  0  0  0
 49 50  2  0  0  0  0
  1 39  1  0  0  0  0
  1 41  1  0  0  0  0
  1 45  1  0  0  0  0
  1  5  1  0  0  0  0
  1 42  1  0  0  0  0
  1 18  1  0  0  0  0
  1 48  1  0  0  0  0
M  END
$$$$
