compound_123
  GFN2-xTB geometry (ORCA XTB2, DDCOSMO(water))

 70 76  0  0  0  0  0  0  0  0999 V2000
   -4.9461   -4.7344   -0.6401 C   0  0  0  0  0  0  0  0  0  0  0  0
   -5.5381   -4.7146    0.5950 C   0  0  0  0  0  0  0  0  0  0  0  0
   -4.7332   -4.8497    1.7681 C   0  0  0  0  0  0  0  0  0  0  0  0
   -3.3955   -5.1305    1.6555 C   0  0  0  0  0  0  0  0  0  0  0  0
   -2.7988   -5.2603    0.3868 C   0  0  0  0  0  0  0  0  0  0  0  0
   -3.5690   -4.9801   -0.7643 C   0  0  0  0  0  0  0  0  0  0  0  0
   -5.5256   -4.5983   -1.5365 H   0  0  0  0  0  0  0  0  0  0  0  0
   -7.7832    0.4287    1.1790 H   0  0  0  0  0  0  0  0  0  0  0  0
   -2.7691   -5.2928    2.5161 H   0  0  0  0  0  0  0  0  0  0  0  0
   -9.3334    0.0422    0.7592 H   0  0  0  0  0  0  0  0  0  0  0  0
   -5.4078   -4.7003    2.9414 O   0  0  0  0  0  0  0  0  0  0  0  0
   -4.6896   -4.8644    4.1478 C   0  0  0  0  0  0  0  0  0  0  0  0
   -4.2672   -5.8691    4.2188 H   0  0  0  0  0  0  0  0  0  0  0  0
   -5.4123   -4.7122    4.9464 H   0  0  0  0  0  0  0  0  0  0  0  0
   -3.8889   -4.1242    4.2355 H   0  0  0  0  0  0  0  0  0  0  0  0
   -6.8787   -4.5817    0.7962 O   0  0  0  0  0  0  0  0  0  0  0  0
   -7.7431   -5.0182   -0.2671 C   0  0  0  0  0  0  0  0  0  0  0  0
   -8.2102   -3.8653   -1.1815 C   0  0  0  0  0  0  0  0  0  0  0  0
   -7.2450   -5.8061   -0.8361 H   0  0  0  0  0  0  0  0  0  0  0  0
   -9.3004   -3.8771   -1.2319 H   0  0  0  0  0  0  0  0  0  0  0  0
   -7.8116   -3.9972   -2.1924 H   0  0  0  0  0  0  0  0  0  0  0  0
   -8.5975   -5.4562    0.2511 H   0  0  0  0  0  0  0  0  0  0  0  0
   -7.8011   -2.5579   -0.6737 N   0  0  0  0  0  0  0  0  0  0  0  0
   -6.7914   -2.4437   -0.8213 H   0  0  0  0  0  0  0  0  0  0  0  0
   -6.3088    0.0783   -3.5591 F   0  0  0  0  0  0  0  0  0  0  0  0
   -8.4862   -1.4740   -1.3897 C   0  0  0  0  0  0  0  0  0  0  0  0
   -8.0117   -0.1675   -0.7756 C   0  0  0  0  0  0  0  0  0  0  0  0
   -8.3533   -0.2349    0.6507 N   0  0  0  0  0  0  0  0  0  0  0  0
   -8.2697   -1.5106   -2.4601 H   0  0  0  0  0  0  0  0  0  0  0  0
   -9.5631   -1.5874   -1.2248 H   0  0  0  0  0  0  0  0  0  0  0  0
   -8.4857    0.6900   -1.2594 H   0  0  0  0  0  0  0  0  0  0  0  0
   -6.9263   -0.0717   -0.8785 H   0  0  0  0  0  0  0  0  0  0  0  0
   -1.5090   -5.6755    0.2905 N   0  0  0  0  0  0  0  0  0  0  0  0
   -1.0507   -5.8554   -0.9188 C   0  0  0  0  0  0  0  0  0  0  0  0
   -1.6457   -5.5520   -2.0715 N   0  0  0  0  0  0  0  0  0  0  0  0
   -2.8676   -5.0392   -2.0061 C   0  0  0  0  0  0  0  0  0  0  0  0
   -9.1250   -5.3573    2.5065 H   0  0  0  0  0  0  0  0  0  0  0  0
   -0.0500   -6.2627   -0.9994 H   0  0  0  0  0  0  0  0  0  0  0  0
  -10.4798   -3.8579    1.0462 H   0  0  0  0  0  0  0  0  0  0  0  0
   -3.4545   -4.6295   -3.1647 N   0  0  0  0  0  0  0  0  0  0  0  0
   -4.1934   -3.4429   -3.2567 C   0  0  0  0  0  0  0  0  0  0  0  0
   -3.9202   -2.3824   -2.3909 C   0  0  0  0  0  0  0  0  0  0  0  0
   -4.6253   -1.1985   -2.4862 C   0  0  0  0  0  0  0  0  0  0  0  0
   -5.6126   -1.0711   -3.4553 C   0  0  0  0  0  0  0  0  0  0  0  0
   -5.8920   -2.1148   -4.3213 C   0  0  0  0  0  0  0  0  0  0  0  0
   -5.1806   -3.2965   -4.2285 C   0  0  0  0  0  0  0  0  0  0  0  0
   -3.1394   -2.4731   -1.6514 H   0  0  0  0  0  0  0  0  0  0  0  0
   -2.9803   -4.9267   -4.0083 H   0  0  0  0  0  0  0  0  0  0  0  0
   -4.2288    0.1253   -1.4116 Cl  0  0  0  0  0  0  0  0  0  0  0  0
   -6.6620   -1.9851   -5.0645 H   0  0  0  0  0  0  0  0  0  0  0  0
   -5.3845   -4.1086   -4.9064 H   0  0  0  0  0  0  0  0  0  0  0  0
   -7.9898   -2.1706    1.3855 Ru  0  0  0  0  0  0  0  0  0  0  0  0
   -8.3425   -3.7665    3.6852 C   0  0  0  0  0  0  0  0  0  0  0  0
   -8.3961   -2.3768    3.9393 C   0  0  0  0  0  0  0  0  0  0  0  0
   -9.3379   -1.5688    3.2951 C   0  0  0  0  0  0  0  0  0  0  0  0
  -10.0581   -2.0713    2.1878 C   0  0  0  0  0  0  0  0  0  0  0  0
   -9.8504   -3.4227    1.8147 C   0  0  0  0  0  0  0  0  0  0  0  0
   -9.1035   -4.2888    2.6607 C   0  0  0  0  0  0  0  0  0  0  0  0
  -10.8550   -1.4900    1.7338 H   0  0  0  0  0  0  0  0  0  0  0  0
   -7.7532   -4.4076    4.3246 H   0  0  0  0  0  0  0  0  0  0  0  0
   -5.6489   -1.5149    1.5278 Cl  0  0  0  0  0  0  0  0  0  0  0  0
   -7.7437   -1.6178    5.0603 C   0  0  0  0  0  0  0  0  0  0  0  0
   -8.1007   -0.1546    4.7451 C   0  0  0  0  0  0  0  0  0  0  0  0
   -9.4275   -0.2310    3.9724 C   0  0  0  0  0  0  0  0  0  0  0  0
   -9.5627    0.6052    3.2908 H   0  0  0  0  0  0  0  0  0  0  0  0
  -10.2711   -0.2480    4.6680 H   0  0  0  0  0  0  0  0  0  0  0  0
   -7.3220    0.2665    4.1021 H   0  0  0  0  0  0  0  0  0  0  0  0
   -8.1656    0.4562    5.6425 H   0  0  0  0  0  0  0  0  0  0  0  0
   -6.6656   -1.7847    5.1156 H   0  0  0  0  0  0  0  0  0  0  0  0
   -8.1788   -1.9342    6.0129 H   0  0  0  0  0  0  0  0  0  0  0  0
  6 36  1  0  0  0  0
  3 11  1  0  0  0  0
  2 16  1  0  0  0  0
 25 44  1  0  0  0  0
 34 35  1  0  0  0  0
  1  2  4  0  0  0  0
  3  4  4  0  0  0  0
 53 58  4  0  0  0  0
 42 43  4  0  0  0  0
 45 46  4  0  0  0  0
 44 45  4  0  0  0  0
 43 44  4  0  0  0  0
 55 64  1  0  0  0  0
 54 62  1  0  0  0  0
 41 46  4  0  0  0  0
  5 33  1  0  0  0  0
 41 42  4  0  0  0  0
 54 55  4  0  0  0  0
 36 40  1  0  0  0  0
  1  6  4  0  0  0  0
  4  5  4  0  0  0  0
 26 27  1  0  0  0  0
 11 12  1  0  0  0  0
  5  6  4  0  0  0  0
 55 56  4  0  0  0  0
 53 54  4  0  0  0  0
 56 57  4  0  0  0  0
 43 49  1  0  0  0  0
 57 58  4  0  0  0  0
 63 64  1  0  0  0  0
 62 63  1  0  0  0  0
  2  3  4  0  0  0  0
 17 18  1  0  0  0  0
  1  7  1  0  0  0  0
 16 17  1  0  0  0  0
  4  9  1  0  0  0  0
 46 51  1  0  0  0  0
 45 50  1  0  0  0  0
 40 41  1  0  0  0  0
 42 47  1  0  0  0  0
 37 58  1  0  0  0  0
 53 60  1  0  0  0  0
 40 48  1  0  0  0  0
 34 38  1  0  0  0  0
 39 57  1  0  0  0  0
 56 59  1  0  0  0  0
 64 65  1  0  0  0  0
 63 68  1  0  0  0  0
 12 14  1  0  0  0  0
 17 22  1  0  0  0  0
 18 20  1  0  0  0  0
 17 19  1  0  0  0  0
 12 13  1  0  0  0  0
 62 69  1  0  0  0  0
 26 29  1  0  0  0  0
 27 31  1  0  0  0  0
 64 66  1  0  0  0  0
  8 28  1  0  0  0  0
 12 15  1  0  0  0  0
 62 70  1  0  0  0  0
 63 67  1  0  0  0  0
 27 32  1  0  0  0  0
 18 21  1  0  0  0  0
 26 30  1  0  0  0  0
 10 28  1  0  0  0  0
 23 24  1  0  0  0  0
 18 23  1  0  0  0  0
 27 28  1  0  0  0  0
 23 26  1  0  0  0  0
 33 34  2  0  0  0  0
 35 36  2  0  0  0  0
 52 57  1  0  0  0  0
 52 23  1  0  0  0  0
 52 28  1  0  0  0  0
 52 56  1  0  0  0  0
 52 61  1  0  0  0  0
M  END
$$$$
