compound_30
  GFN2-xTB geometry (ORCA XTB2, DDCOSMO(water))

 62 71  0  0  0  0  0  0  0  0999 V2000
    2.4580   -3.4166    0.1146 C   0  0  0  0  0  0  0  0  0  0  0  0
    1.9039   -2.4631    1.0014 C   0  0  0  0  0  0  0  0  0  0  0  0
    0.4900   -2.4823    1.1440 C   0  0  0  0  0  0  0  0  0  0  0  0
   -0.2632   -3.4053    0.4003 C   0  0  0  0  0  0  0  0  0  0  0  0
    0.3023   -4.3730   -0.4838 C   0  0  0  0  0  0  0  0  0  0  0  0
    1.6842   -4.3495   -0.5916 C   0  0  0  0  0  0  0  0  0  0  0  0
   -4.1113   -4.5555   -0.1330 H   0  0  0  0  0  0  0  0  0  0  0  0
   -4.3482   -6.5231   -1.6057 H   0  0  0  0  0  0  0  0  0  0  0  0
   -0.0860   -0.1302    3.3470 H   0  0  0  0  0  0  0  0  0  0  0  0
   -4.8544   -3.7374    2.2952 H   0  0  0  0  0  0  0  0  0  0  0  0
    2.6008   -1.5147    1.7680 C   0  0  0  0  0  0  0  0  0  0  0  0
    1.8545   -0.6997    2.5882 C   0  0  0  0  0  0  0  0  0  0  0  0
    0.4611   -0.7904    2.6886 C   0  0  0  0  0  0  0  0  0  0  0  0
   -0.2074   -1.6780    1.9723 N   0  0  0  0  0  0  0  0  0  0  0  0
    3.6745   -1.4352    1.7120 H   0  0  0  0  0  0  0  0  0  0  0  0
   -2.6596   -0.9059    4.7452 H   0  0  0  0  0  0  0  0  0  0  0  0
   -0.8331   -5.1082   -0.9588 C   0  0  0  0  0  0  0  0  0  0  0  0
   -1.9742   -4.5130   -0.3378 C   0  0  0  0  0  0  0  0  0  0  0  0
   -1.5914   -3.4822    0.4898 N   0  0  0  0  0  0  0  0  0  0  0  0
   -0.1219   -6.6735   -2.2582 H   0  0  0  0  0  0  0  0  0  0  0  0
   -3.2459   -5.0104   -0.5882 C   0  0  0  0  0  0  0  0  0  0  0  0
   -3.3703   -6.1076   -1.4135 C   0  0  0  0  0  0  0  0  0  0  0  0
   -2.2527   -6.7115   -2.0048 C   0  0  0  0  0  0  0  0  0  0  0  0
   -0.9768   -6.2064   -1.7933 C   0  0  0  0  0  0  0  0  0  0  0  0
    2.6138   -5.2023   -1.3690 C   0  0  0  0  0  0  0  0  0  0  0  0
    3.8733   -4.7209   -1.1120 N   0  0  0  0  0  0  0  0  0  0  0  0
    3.8563   -3.6466   -0.2196 C   0  0  0  0  0  0  0  0  0  0  0  0
    4.8607   -3.0746    0.1613 O   0  0  0  0  0  0  0  0  0  0  0  0
    2.3654   -6.1543   -2.0835 O   0  0  0  0  0  0  0  0  0  0  0  0
   -3.3151   -8.0606   -2.8495 H   0  0  0  0  0  0  0  0  0  0  0  0
   -2.2397   -2.1763    1.9893 Ru  0  0  0  0  0  0  0  0  0  0  0  0
   -2.6046   -0.8318    0.7886 C   0  0  0  0  0  0  0  0  0  0  0  0
   -1.2932   -3.1942    4.7191 H   0  0  0  0  0  0  0  0  0  0  0  0
   -2.8612   -1.7448    4.0945 C   0  0  0  0  0  0  0  0  0  0  0  0
   -4.0433   -1.9201    3.3163 C   0  0  0  0  0  0  0  0  0  0  0  0
   -4.0344   -3.2344    2.7879 C   0  0  0  0  0  0  0  0  0  0  0  0
   -2.8657   -3.9062    3.2987 C   0  0  0  0  0  0  0  0  0  0  0  0
   -2.1520   -2.9812    4.0975 C   0  0  0  0  0  0  0  0  0  0  0  0
   -4.8577   -1.2125    3.2304 H   0  0  0  0  0  0  0  0  0  0  0  0
    5.5286   -4.5592   -2.3732 H   0  0  0  0  0  0  0  0  0  0  0  0
    2.4712    0.2276    3.3470 F   0  0  0  0  0  0  0  0  0  0  0  0
   -2.3812   -7.8064   -2.7950 O   0  0  0  0  0  0  0  0  0  0  0  0
   -2.8630    0.0127    0.0510 O   0  0  0  0  0  0  0  0  0  0  0  0
    5.0832   -5.2694   -1.6764 C   0  0  0  0  0  0  0  0  0  0  0  0
    4.8204   -6.1864   -2.2000 H   0  0  0  0  0  0  0  0  0  0  0  0
    5.7954   -5.4781   -0.8788 H   0  0  0  0  0  0  0  0  0  0  0  0
   -2.6287   -5.3488    3.0808 C   0  0  0  0  0  0  0  0  0  0  0  0
   -1.1890   -7.2788    3.5145 C   0  0  0  0  0  0  0  0  0  0  0  0
   -0.6920   -7.6078    2.0870 C   0  0  0  0  0  0  0  0  0  0  0  0
    0.1588   -8.8773    2.0814 C   0  0  0  0  0  0  0  0  0  0  0  0
    0.0710   -6.4910    1.6710 O   0  0  0  0  0  0  0  0  0  0  0  0
   -1.5513   -5.8870    3.6767 N   0  0  0  0  0  0  0  0  0  0  0  0
   -1.7688   -7.8203    1.2073 O   0  0  0  0  0  0  0  0  0  0  0  0
   -3.4303   -6.0309    2.4286 O   0  0  0  0  0  0  0  0  0  0  0  0
   -0.8279   -5.2798    4.0276 H   0  0  0  0  0  0  0  0  0  0  0  0
   -0.4045   -7.5050    4.2330 H   0  0  0  0  0  0  0  0  0  0  0  0
   -2.0653   -7.9021    3.7136 H   0  0  0  0  0  0  0  0  0  0  0  0
    0.4429   -6.6898    0.8027 H   0  0  0  0  0  0  0  0  0  0  0  0
    0.3931   -9.1377    1.0518 H   0  0  0  0  0  0  0  0  0  0  0  0
   -0.3992   -9.6928    2.5293 H   0  0  0  0  0  0  0  0  0  0  0  0
    1.0784   -8.7073    2.6324 H   0  0  0  0  0  0  0  0  0  0  0  0
   -2.5029   -7.2255    1.4636 H   0  0  0  0  0  0  0  0  0  0  0  0
  2  3  1  0  0  0  0
  5 17  1  0  0  0  0
  1 27  1  0  0  0  0
 23 42  1  0  0  0  0
 12 41  1  0  0  0  0
  4 19  1  0  0  0  0
 37 47  1  0  0  0  0
  6 25  1  0  0  0  0
 11 12  4  0  0  0  0
 21 22  4  0  0  0  0
 47 52  1  0  0  0  0
 13 14  4  0  0  0  0
  5  6  4  0  0  0  0
 17 24  4  0  0  0  0
 18 21  4  0  0  0  0
 23 24  4  0  0  0  0
 12 13  4  0  0  0  0
 22 23  4  0  0  0  0
  1  6  4  0  0  0  0
 49 53  1  0  0  0  0
  3  4  4  0  0  0  0
  2 11  4  0  0  0  0
 25 26  1  0  0  0  0
 49 51  1  0  0  0  0
  3 14  4  0  0  0  0
 18 19  1  0  0  0  0
  1  2  4  0  0  0  0
 37 38  4  0  0  0  0
 49 50  1  0  0  0  0
 35 36  4  0  0  0  0
 34 38  4  0  0  0  0
 34 35  4  0  0  0  0
  4  5  4  0  0  0  0
 17 18  4  0  0  0  0
 48 49  1  0  0  0  0
 26 27  1  0  0  0  0
 51 58  1  0  0  0  0
 52 55  1  0  0  0  0
 11 15  1  0  0  0  0
  7 21  1  0  0  0  0
 20 24  1  0  0  0  0
  8 22  1  0  0  0  0
 30 42  1  0  0  0  0
 36 37  4  0  0  0  0
 16 34  1  0  0  0  0
 10 36  1  0  0  0  0
  9 13  1  0  0  0  0
 33 38  1  0  0  0  0
 35 39  1  0  0  0  0
 50 60  1  0  0  0  0
 50 61  1  0  0  0  0
 50 59  1  0  0  0  0
 48 56  1  0  0  0  0
 44 45  1  0  0  0  0
 44 46  1  0  0  0  0
 40 44  1  0  0  0  0
 53 62  1  0  0  0  0
 48 57  1  0  0  0  0
 26 44  1  0  0  0  0
 48 52  1  0  0  0  0
 32 43  2  0  0  0  0
 25 29  2  0  0  0  0
 27 28  2  0  0  0  0
 47 54  2  0  0  0  0
 31 35  1  0  0  0  0
 31 36  1  0  0  0  0
 31 19  1  0  0  0  0
 31 14  1  0  0  0  0
 31 32  1  0  0  0  0
 31 34  1  0  0  0  0
 31 38  1  0  0  0  0
M  END
$$$$
