compound_88
  GFN2-xTB geometry (ORCA XTB2, DDCOSMO(water))

 38 45  0  0  0  0  0  0  0  0999 V2000
   -1.0027   -0.5880    0.8249 Ru  0  0  0  0  0  0  0  0  0  0  0  0
   -0.0034   -0.3355   -1.2021 C   0  0  0  0  0  0  0  0  0  0  0  0
   -0.9303    0.7104   -1.0159 C   0  0  0  0  0  0  0  0  0  0  0  0
   -0.8305    1.5906    0.0938 C   0  0  0  0  0  0  0  0  0  0  0  0
    0.1896    1.4294    1.0467 C   0  0  0  0  0  0  0  0  0  0  0  0
    1.1287    0.3702    0.8614 C   0  0  0  0  0  0  0  0  0  0  0  0
    1.0400   -0.4827   -0.2404 C   0  0  0  0  0  0  0  0  0  0  0  0
   -1.6962    0.8936   -1.7599 H   0  0  0  0  0  0  0  0  0  0  0  0
   -1.9249   -0.7081   -3.3419 H   0  0  0  0  0  0  0  0  0  0  0  0
   -1.5114    2.4315    0.1722 H   0  0  0  0  0  0  0  0  0  0  0  0
    1.9503    0.2719    1.5630 H   0  0  0  0  0  0  0  0  0  0  0  0
    0.2655    0.4527   -3.7978 H   0  0  0  0  0  0  0  0  0  0  0  0
    1.2697    2.9834    2.0022 H   0  0  0  0  0  0  0  0  0  0  0  0
    0.7590   -0.4824   -3.5455 C   0  0  0  0  0  0  0  0  0  0  0  0
   -1.3798   -2.3558   -3.6374 H   0  0  0  0  0  0  0  0  0  0  0  0
    1.7991   -1.2421   -0.3959 H   0  0  0  0  0  0  0  0  0  0  0  0
    0.3698    2.3943    2.1753 C   0  0  0  0  0  0  0  0  0  0  0  0
    0.4925    1.8643    3.1199 H   0  0  0  0  0  0  0  0  0  0  0  0
   -0.4831    3.0622    2.2604 H   0  0  0  0  0  0  0  0  0  0  0  0
   -0.0119   -1.2058   -2.4345 C   0  0  0  0  0  0  0  0  0  0  0  0
    0.5145   -2.1354   -2.1886 H   0  0  0  0  0  0  0  0  0  0  0  0
   -2.0252   -1.9141   -2.0549 H   0  0  0  0  0  0  0  0  0  0  0  0
    1.7755   -0.2658   -3.2272 H   0  0  0  0  0  0  0  0  0  0  0  0
    0.7958   -1.1093   -4.4316 H   0  0  0  0  0  0  0  0  0  0  0  0
   -1.4252   -1.5633   -2.8964 C   0  0  0  0  0  0  0  0  0  0  0  0
   -1.1388   -0.9112    3.3473 Br  0  0  0  0  0  0  0  0  0  0  0  0
   -1.0987   -2.7149    0.6727 O   0  0  0  0  0  0  0  0  0  0  0  0
   -2.2818   -3.3157    0.5856 N   0  0  0  0  0  0  0  0  0  0  0  0
   -3.4342   -2.6073    0.5401 C   0  0  0  0  0  0  0  0  0  0  0  0
   -4.6449   -3.2917    0.4087 C   0  0  0  0  0  0  0  0  0  0  0  0
   -4.6627   -4.6645    0.3408 C   0  0  0  0  0  0  0  0  0  0  0  0
   -3.4555   -5.3610    0.4031 C   0  0  0  0  0  0  0  0  0  0  0  0
   -2.2848   -4.6604    0.5244 C   0  0  0  0  0  0  0  0  0  0  0  0
   -1.3081   -5.1151    0.5790 H   0  0  0  0  0  0  0  0  0  0  0  0
   -5.5425   -2.6978    0.3690 H   0  0  0  0  0  0  0  0  0  0  0  0
   -5.5969   -5.1910    0.2436 H   0  0  0  0  0  0  0  0  0  0  0  0
   -3.4239   -6.4355    0.3582 H   0  0  0  0  0  0  0  0  0  0  0  0
   -3.3740   -0.8856    0.6306 S   0  0  0  0  0  0  0  0  0  0  0  0
 32 33  2  0  0  0  0
 30 31  2  0  0  0  0
 28 33  1  0  0  0  0
  5 17  1  0  0  0  0
 28 29  1  0  0  0  0
 31 32  1  0  0  0  0
 27 28  1  0  0  0  0
  6  7  4  0  0  0  0
 29 30  1  0  0  0  0
  2 20  1  0  0  0  0
  4  5  4  0  0  0  0
  2  3  4  0  0  0  0
 20 25  1  0  0  0  0
  3  4  4  0  0  0  0
 14 20  1  0  0  0  0
  2  7  4  0  0  0  0
  5  6  4  0  0  0  0
 32 37  1  0  0  0  0
 31 36  1  0  0  0  0
 30 35  1  0  0  0  0
 33 34  1  0  0  0  0
  3  8  1  0  0  0  0
  6 11  1  0  0  0  0
  7 16  1  0  0  0  0
  4 10  1  0  0  0  0
 15 25  1  0  0  0  0
 14 24  1  0  0  0  0
  9 25  1  0  0  0  0
 17 19  1  0  0  0  0
 12 14  1  0  0  0  0
 14 23  1  0  0  0  0
 13 17  1  0  0  0  0
 17 18  1  0  0  0  0
 22 25  1  0  0  0  0
 20 21  1  0  0  0  0
 29 38  2  0  0  0  0
  1  2  1  0  0  0  0
  1  3  1  0  0  0  0
  1  4  1  0  0  0  0
  1  5  1  0  0  0  0
  1  6  1  0  0  0  0
  1  7  1  0  0  0  0
  1 26  1  0  0  0  0
  1 27  1  0  0  0  0
  1 38  1  0  0  0  0
M  END
$$$$
