compound_78
  GFN2-xTB geometry (ORCA XTB2, DDCOSMO(water))

 62 71  0  0  0  0  0  0  0  0999 V2000
   -1.1008   -0.8799    0.4729 Ru  0  0  0  0  0  0  0  0  0  0  0  0
   -0.1824    0.0471   -1.4056 C   0  0  0  0  0  0  0  0  0  0  0  0
   -1.5021    0.5621   -1.2909 C   0  0  0  0  0  0  0  0  0  0  0  0
   -1.9337    1.1940   -0.1188 C   0  0  0  0  0  0  0  0  0  0  0  0
   -1.0061    1.2942    0.9633 C   0  0  0  0  0  0  0  0  0  0  0  0
    0.3133    0.8259    0.8412 C   0  0  0  0  0  0  0  0  0  0  0  0
    0.7512    0.1997   -0.3634 C   0  0  0  0  0  0  0  0  0  0  0  0
   -2.1620    0.4971   -2.1475 H   0  0  0  0  0  0  0  0  0  0  0  0
    2.6062   -0.5174    0.4280 H   0  0  0  0  0  0  0  0  0  0  0  0
   -1.3045    1.8253    1.8613 H   0  0  0  0  0  0  0  0  0  0  0  0
    1.0272    0.9996    1.6379 H   0  0  0  0  0  0  0  0  0  0  0  0
   -2.2474   -2.7388   -0.5701 Cl  0  0  0  0  0  0  0  0  0  0  0  0
    0.1340   -0.3840   -2.3500 H   0  0  0  0  0  0  0  0  0  0  0  0
    1.0108   -4.8202    3.1982 C   0  0  0  0  0  0  0  0  0  0  0  0
   -0.1566   -4.0618    3.1480 C   0  0  0  0  0  0  0  0  0  0  0  0
   -0.9975   -4.6684    4.1195 C   0  0  0  0  0  0  0  0  0  0  0  0
   -0.3999   -5.6901    4.6962 N   0  0  0  0  0  0  0  0  0  0  0  0
    0.8142   -5.7551    4.1308 N   0  0  0  0  0  0  0  0  0  0  0  0
   -2.2577   -4.1949    4.3638 N   0  0  0  0  0  0  0  0  0  0  0  0
   -2.7571   -3.1253    3.6970 C   0  0  0  0  0  0  0  0  0  0  0  0
   -3.8769   -2.6797    3.8576 O   0  0  0  0  0  0  0  0  0  0  0  0
   -1.8927   -2.5083    2.7833 N   0  0  0  0  0  0  0  0  0  0  0  0
   -0.6384   -2.9475    2.4028 C   0  0  0  0  0  0  0  0  0  0  0  0
   -2.8533   -4.6655    5.0322 H   0  0  0  0  0  0  0  0  0  0  0  0
   -0.0443   -2.2899    1.4635 N   0  0  0  0  0  0  0  0  0  0  0  0
   -2.6008   -0.6354    2.7504 H   0  0  0  0  0  0  0  0  0  0  0  0
    1.7137   -6.8201    4.4624 C   0  0  0  0  0  0  0  0  0  0  0  0
   -3.5224    1.9578    1.0665 H   0  0  0  0  0  0  0  0  0  0  0  0
    1.4056   -7.2246    5.4260 H   0  0  0  0  0  0  0  0  0  0  0  0
    2.7266   -6.4209    4.5268 H   0  0  0  0  0  0  0  0  0  0  0  0
   -2.4086   -1.3945    2.0786 N   0  0  0  0  0  0  0  0  0  0  0  0
   -3.3228   -1.6543    1.6757 H   0  0  0  0  0  0  0  0  0  0  0  0
    0.8868   -2.6191    1.2162 H   0  0  0  0  0  0  0  0  0  0  0  0
    2.1760   -0.2208   -0.5247 C   0  0  0  0  0  0  0  0  0  0  0  0
    2.7517    0.6236   -0.9061 H   0  0  0  0  0  0  0  0  0  0  0  0
    2.2672   -1.0379   -1.2362 H   0  0  0  0  0  0  0  0  0  0  0  0
   -3.3035    1.8164    0.0038 C   0  0  0  0  0  0  0  0  0  0  0  0
   -3.2827    3.1950   -0.6668 C   0  0  0  0  0  0  0  0  0  0  0  0
   -4.3992    0.9328   -0.5959 C   0  0  0  0  0  0  0  0  0  0  0  0
   -5.3766    1.2829   -0.2753 H   0  0  0  0  0  0  0  0  0  0  0  0
   -4.2814   -0.1031   -0.2775 H   0  0  0  0  0  0  0  0  0  0  0  0
   -4.3791    0.9586   -1.6830 H   0  0  0  0  0  0  0  0  0  0  0  0
   -2.5339    3.8358   -0.2079 H   0  0  0  0  0  0  0  0  0  0  0  0
   -4.2545    3.6707   -0.5652 H   0  0  0  0  0  0  0  0  0  0  0  0
   -3.0558    3.1024   -1.7267 H   0  0  0  0  0  0  0  0  0  0  0  0
    1.6618   -7.9359    3.3888 C   0  0  0  0  0  0  0  0  0  0  0  0
    3.3857   -7.2264    1.6420 C   0  0  0  0  0  0  0  0  0  0  0  0
    3.6432   -6.6939    0.3486 C   0  0  0  0  0  0  0  0  0  0  0  0
    4.9241   -6.4688   -0.0887 C   0  0  0  0  0  0  0  0  0  0  0  0
    6.0111   -6.7582    0.7322 C   0  0  0  0  0  0  0  0  0  0  0  0
    5.7899   -7.2811    2.0029 C   0  0  0  0  0  0  0  0  0  0  0  0
    4.5145   -7.5125    2.4566 C   0  0  0  0  0  0  0  0  0  0  0  0
    2.8034   -6.4701   -0.2933 H   0  0  0  0  0  0  0  0  0  0  0  0
    5.0953   -6.0672   -1.0771 H   0  0  0  0  0  0  0  0  0  0  0  0
    7.0174   -6.5840    0.3832 H   0  0  0  0  0  0  0  0  0  0  0  0
    6.6350   -7.5106    2.6361 H   0  0  0  0  0  0  0  0  0  0  0  0
    4.3708   -7.9318    3.4390 H   0  0  0  0  0  0  0  0  0  0  0  0
    0.6442   -8.3242    3.3433 H   0  0  0  0  0  0  0  0  0  0  0  0
    2.3210   -8.7360    3.7272 H   0  0  0  0  0  0  0  0  0  0  0  0
    2.0728   -7.4402    2.0507 C   0  0  0  0  0  0  0  0  0  0  0  0
    1.9291   -4.7418    2.6545 H   0  0  0  0  0  0  0  0  0  0  0  0
    1.2867   -7.2000    1.3500 H   0  0  0  0  0  0  0  0  0  0  0  0
 47 48  1  0  0  0  0
 15 23  1  0  0  0  0
 17 18  1  0  0  0  0
 14 18  1  0  0  0  0
 48 49  4  0  0  0  0
 51 52  4  0  0  0  0
 46 60  1  0  0  0  0
 16 17  2  0  0  0  0
  7 34  1  0  0  0  0
 47 60  4  0  0  0  0
 50 51  4  0  0  0  0
 49 50  4  0  0  0  0
 19 20  1  0  0  0  0
 14 15  2  0  0  0  0
  4 37  1  0  0  0  0
  3  4  4  0  0  0  0
 16 19  1  0  0  0  0
  5  6  4  0  0  0  0
  2  7  4  0  0  0  0
 37 39  1  0  0  0  0
 22 23  1  0  0  0  0
 15 16  1  0  0  0  0
 37 38  1  0  0  0  0
 47 52  4  0  0  0  0
  2  3  4  0  0  0  0
  6  7  4  0  0  0  0
 14 61  1  0  0  0  0
  4  5  4  0  0  0  0
 27 46  1  0  0  0  0
 52 57  1  0  0  0  0
 20 22  1  0  0  0  0
 50 55  1  0  0  0  0
 60 62  1  0  0  0  0
 48 53  1  0  0  0  0
 49 54  1  0  0  0  0
 51 56  1  0  0  0  0
 22 31  1  0  0  0  0
 19 24  1  0  0  0  0
  3  8  1  0  0  0  0
  6 11  1  0  0  0  0
  5 10  1  0  0  0  0
  2 13  1  0  0  0  0
  9 34  1  0  0  0  0
 39 40  1  0  0  0  0
 38 44  1  0  0  0  0
 38 43  1  0  0  0  0
 34 36  1  0  0  0  0
 39 42  1  0  0  0  0
 38 45  1  0  0  0  0
 25 33  1  0  0  0  0
 27 29  1  0  0  0  0
 46 58  1  0  0  0  0
 39 41  1  0  0  0  0
 46 59  1  0  0  0  0
 27 30  1  0  0  0  0
 34 35  1  0  0  0  0
 28 37  1  0  0  0  0
 18 27  1  0  0  0  0
 26 31  1  0  0  0  0
 31 32  1  0  0  0  0
 20 21  2  0  0  0  0
 23 25  2  0  0  0  0
  1  2  1  0  0  0  0
  1  3  1  0  0  0  0
  1  4  1  0  0  0  0
  1  5  1  0  0  0  0
  1  6  1  0  0  0  0
  1  7  1  0  0  0  0
  1 12  1  0  0  0  0
  1 25  1  0  0  0  0
  1 31  1  0  0  0  0
M  END
$$$$
