compound_42
  GFN2-xTB geometry (ORCA XTB2, DDCOSMO(water))

 39 47  0  0  0  0  0  0  0  0999 V2000
   -0.2676   -5.3705    3.9593 C   0  0  0  0  0  0  0  0  0  0  0  0
   -0.3708    1.8207   -1.4917 N   0  0  0  0  0  0  0  0  0  0  0  0
    0.4499   -6.1788    3.9600 H   0  0  0  0  0  0  0  0  0  0  0  0
    1.0370   -3.5833    4.2873 H   0  0  0  0  0  0  0  0  0  0  0  0
   -2.2143   -6.4403    4.0605 H   0  0  0  0  0  0  0  0  0  0  0  0
   -1.2585   -2.2428    4.5914 H   0  0  0  0  0  0  0  0  0  0  0  0
    0.9573   -6.1874    1.4131 H   0  0  0  0  0  0  0  0  0  0  0  0
    2.8988   -6.2475   -0.1166 H   0  0  0  0  0  0  0  0  0  0  0  0
   -1.6647   -5.5090    4.0239 C   0  0  0  0  0  0  0  0  0  0  0  0
    3.3726   -4.2470   -1.5398 H   0  0  0  0  0  0  0  0  0  0  0  0
   -2.2158   -0.1578    0.9836 C   0  0  0  0  0  0  0  0  0  0  0  0
   -0.3012   -2.0879    0.3712 C   0  0  0  0  0  0  0  0  0  0  0  0
   -2.2495   -1.4180    1.6079 C   0  0  0  0  0  0  0  0  0  0  0  0
   -1.3127   -2.3836    1.3324 C   0  0  0  0  0  0  0  0  0  0  0  0
   -2.2332   -4.2092    4.2191 C   0  0  0  0  0  0  0  0  0  0  0  0
   -1.1495   -4.1908    2.2370 Ru  0  0  0  0  0  0  0  0  0  0  0  0
    0.6448   -3.1758    0.1535 C   0  0  0  0  0  0  0  0  0  0  0  0
   -3.2665   -4.0091    4.4711 H   0  0  0  0  0  0  0  0  0  0  0  0
    0.4094   -4.2669    0.9204 N   0  0  0  0  0  0  0  0  0  0  0  0
    1.8847   -2.2797   -1.3462 H   0  0  0  0  0  0  0  0  0  0  0  0
    1.2067   -5.3288    0.8018 C   0  0  0  0  0  0  0  0  0  0  0  0
    2.2842   -5.3651   -0.0620 C   0  0  0  0  0  0  0  0  0  0  0  0
    2.5435   -4.2522   -0.8512 C   0  0  0  0  0  0  0  0  0  0  0  0
    1.7138   -3.1540   -0.7424 C   0  0  0  0  0  0  0  0  0  0  0  0
   -2.3040   -4.7487    0.9410 C   0  0  0  0  0  0  0  0  0  0  0  0
   -3.0484   -5.0372    0.0922 O   0  0  0  0  0  0  0  0  0  0  0  0
    0.0461   -3.9829    4.1076 C   0  0  0  0  0  0  0  0  0  0  0  0
   -1.1655   -3.2860    4.3196 C   0  0  0  0  0  0  0  0  0  0  0  0
   -1.2519    1.4238   -0.5727 C   0  0  0  0  0  0  0  0  0  0  0  0
   -2.1890    2.3041   -0.2158 N   0  0  0  0  0  0  0  0  0  0  0  0
   -3.0721    1.9183    0.6997 C   0  0  0  0  0  0  0  0  0  0  0  0
   -3.1555    0.7701    1.3131 N   0  0  0  0  0  0  0  0  0  0  0  0
   -3.8188    2.6593    0.9657 H   0  0  0  0  0  0  0  0  0  0  0  0
    0.3418    1.2026   -1.8320 H   0  0  0  0  0  0  0  0  0  0  0  0
   -0.4732    2.7425   -1.8764 H   0  0  0  0  0  0  0  0  0  0  0  0
   -0.2558   -0.8662   -0.2703 C   0  0  0  0  0  0  0  0  0  0  0  0
   -1.2049    0.1181    0.0250 C   0  0  0  0  0  0  0  0  0  0  0  0
    0.5136   -0.6677   -0.9985 H   0  0  0  0  0  0  0  0  0  0  0  0
   -3.0534   -1.5960    2.3106 H   0  0  0  0  0  0  0  0  0  0  0  0
 29 37  1  0  0  0  0
 12 17  1  0  0  0  0
 31 32  2  0  0  0  0
  2 29  1  0  0  0  0
 13 14  4  0  0  0  0
 12 36  4  0  0  0  0
 23 24  4  0  0  0  0
 21 22  4  0  0  0  0
 22 23  4  0  0  0  0
 30 31  1  0  0  0  0
 17 24  4  0  0  0  0
 19 21  4  0  0  0  0
 29 30  2  0  0  0  0
 11 32  1  0  0  0  0
 36 37  4  0  0  0  0
  1  9  4  0  0  0  0
 11 13  4  0  0  0  0
 27 28  4  0  0  0  0
 15 28  4  0  0  0  0
 17 19  4  0  0  0  0
 11 37  4  0  0  0  0
 12 14  4  0  0  0  0
  1 27  4  0  0  0  0
  2 34  1  0  0  0  0
  9 15  4  0  0  0  0
  2 35  1  0  0  0  0
 20 24  1  0  0  0  0
  8 22  1  0  0  0  0
 36 38  1  0  0  0  0
 10 23  1  0  0  0  0
  1  3  1  0  0  0  0
  5  9  1  0  0  0  0
  6 28  1  0  0  0  0
 15 18  1  0  0  0  0
 13 39  1  0  0  0  0
  7 21  1  0  0  0  0
  4 27  1  0  0  0  0
 31 33  1  0  0  0  0
 25 26  2  0  0  0  0
 16 19  1  0  0  0  0
 16 25  1  0  0  0  0
 16  1  1  0  0  0  0
 16  9  1  0  0  0  0
 16 15  1  0  0  0  0
 16 27  1  0  0  0  0
 16 14  1  0  0  0  0
 16 28  1  0  0  0  0
M  END
$$$$
