compound_104
  GFN2-xTB geometry (ORCA XTB2, DDCOSMO(water))

 50 57  0  0  0  0  0  0  0  0999 V2000
    9.5014   -3.5708   -0.4291 Ru  0  0  0  0  0  0  0  0  0  0  0  0
   11.8254   -3.9258   -0.4938 C   0  0  0  0  0  0  0  0  0  0  0  0
   11.4766   -3.4189   -1.7448 C   0  0  0  0  0  0  0  0  0  0  0  0
   10.5184   -4.0876   -2.5674 C   0  0  0  0  0  0  0  0  0  0  0  0
    9.8975   -5.2365   -2.0645 C   0  0  0  0  0  0  0  0  0  0  0  0
   10.1756   -5.6925   -0.7505 C   0  0  0  0  0  0  0  0  0  0  0  0
   11.1531   -5.0561    0.0523 C   0  0  0  0  0  0  0  0  0  0  0  0
    9.7981   -6.7988    1.8862 H   0  0  0  0  0  0  0  0  0  0  0  0
    9.9660   -2.5678   -3.9645 H   0  0  0  0  0  0  0  0  0  0  0  0
    9.6623   -5.0788    2.2885 H   0  0  0  0  0  0  0  0  0  0  0  0
    9.7168   -6.6125   -0.4065 H   0  0  0  0  0  0  0  0  0  0  0  0
   10.6581   -6.1560    3.2751 H   0  0  0  0  0  0  0  0  0  0  0  0
   12.4160   -6.8737    1.1738 C   0  0  0  0  0  0  0  0  0  0  0  0
   12.1689   -4.8751    1.9101 H   0  0  0  0  0  0  0  0  0  0  0  0
   12.7511   -7.2618    2.1318 H   0  0  0  0  0  0  0  0  0  0  0  0
    9.5226   -4.2040   -4.4649 H   0  0  0  0  0  0  0  0  0  0  0  0
    9.2416   -5.8119   -2.7077 H   0  0  0  0  0  0  0  0  0  0  0  0
   12.0143   -2.5732   -2.1593 H   0  0  0  0  0  0  0  0  0  0  0  0
   11.5595   -5.6212    1.3920 C   0  0  0  0  0  0  0  0  0  0  0  0
   12.6471   -3.4813    0.0566 H   0  0  0  0  0  0  0  0  0  0  0  0
   10.3389   -5.9343    2.2604 C   0  0  0  0  0  0  0  0  0  0  0  0
   13.2918   -6.6425    0.5723 H   0  0  0  0  0  0  0  0  0  0  0  0
   10.2829   -3.6114   -3.9638 C   0  0  0  0  0  0  0  0  0  0  0  0
   11.8469   -7.6504    0.6699 H   0  0  0  0  0  0  0  0  0  0  0  0
   11.2109   -3.6721   -4.5317 H   0  0  0  0  0  0  0  0  0  0  0  0
    8.4320   -1.6354   -1.3827 Cl  0  0  0  0  0  0  0  0  0  0  0  0
    9.4622   -2.5189    1.2615 N   0  0  0  0  0  0  0  0  0  0  0  0
    8.2545   -2.4885    1.8667 C   0  0  0  0  0  0  0  0  0  0  0  0
   10.4254   -1.7635    1.7650 C   0  0  0  0  0  0  0  0  0  0  0  0
    7.9711   -1.6989    2.9984 C   0  0  0  0  0  0  0  0  0  0  0  0
   10.2397   -0.9601    2.8918 C   0  0  0  0  0  0  0  0  0  0  0  0
    9.0133   -0.9127    3.5182 C   0  0  0  0  0  0  0  0  0  0  0  0
    8.8428   -0.2934    4.3837 H   0  0  0  0  0  0  0  0  0  0  0  0
   11.3830   -1.7833    1.2626 H   0  0  0  0  0  0  0  0  0  0  0  0
   11.0676   -0.3752    3.2571 H   0  0  0  0  0  0  0  0  0  0  0  0
    4.8788   -5.7536   -0.3458 H   0  0  0  0  0  0  0  0  0  0  0  0
    4.0679   -4.4286    1.5672 H   0  0  0  0  0  0  0  0  0  0  0  0
    7.2627   -3.3294    1.2958 C   0  0  0  0  0  0  0  0  0  0  0  0
    5.9544   -3.3995    1.8252 C   0  0  0  0  0  0  0  0  0  0  0  0
    7.1759   -5.4476   -1.1928 H   0  0  0  0  0  0  0  0  0  0  0  0
    5.0785   -4.3096    1.2132 C   0  0  0  0  0  0  0  0  0  0  0  0
    7.6842   -4.0481    0.2304 N   0  0  0  0  0  0  0  0  0  0  0  0
    6.8308   -4.8839   -0.3369 C   0  0  0  0  0  0  0  0  0  0  0  0
    5.5322   -5.0473    0.1386 C   0  0  0  0  0  0  0  0  0  0  0  0
    6.6530   -1.7540    3.5169 C   0  0  0  0  0  0  0  0  0  0  0  0
    5.6889   -2.5485    2.9572 C   0  0  0  0  0  0  0  0  0  0  0  0
    6.3974   -1.1406    4.3694 H   0  0  0  0  0  0  0  0  0  0  0  0
    4.3805   -2.4759    3.5397 N   0  0  0  0  0  0  0  0  0  0  0  0
    3.4200   -2.8332    2.8830 O   0  0  0  0  0  0  0  0  0  0  0  0
    4.2882   -2.0338    4.6713 O   0  0  0  0  0  0  0  0  0  0  0  0
 48 49  1  0  0  0  0
 48 50  1  0  0  0  0
 30 45  1  0  0  0  0
 39 46  1  0  0  0  0
 31 32  2  0  0  0  0
 41 44  2  0  0  0  0
  4 23  1  0  0  0  0
 42 43  2  0  0  0  0
 27 29  2  0  0  0  0
 27 28  1  0  0  0  0
 38 42  1  0  0  0  0
 43 44  1  0  0  0  0
  2  3  4  0  0  0  0
 29 31  1  0  0  0  0
  7 19  1  0  0  0  0
  4  5  4  0  0  0  0
 39 41  1  0  0  0  0
 30 32  1  0  0  0  0
 28 30  2  0  0  0  0
 38 39  2  0  0  0  0
  6  7  4  0  0  0  0
 19 21  1  0  0  0  0
  5  6  4  0  0  0  0
 28 38  1  0  0  0  0
 13 19  1  0  0  0  0
  2  7  4  0  0  0  0
  3  4  4  0  0  0  0
 36 44  1  0  0  0  0
 31 35  1  0  0  0  0
 37 41  1  0  0  0  0
 32 33  1  0  0  0  0
 45 47  1  0  0  0  0
 40 43  1  0  0  0  0
 29 34  1  0  0  0  0
  5 17  1  0  0  0  0
  6 11  1  0  0  0  0
  2 20  1  0  0  0  0
  3 18  1  0  0  0  0
  8 21  1  0  0  0  0
 16 23  1  0  0  0  0
 13 15  1  0  0  0  0
 12 21  1  0  0  0  0
 13 24  1  0  0  0  0
 13 22  1  0  0  0  0
 23 25  1  0  0  0  0
  9 23  1  0  0  0  0
 10 21  1  0  0  0  0
 14 19  1  0  0  0  0
 46 48  1  0  0  0  0
 45 46  2  0  0  0  0
  1  4  1  0  0  0  0
  1  5  1  0  0  0  0
  1  6  1  0  0  0  0
  1  7  1  0  0  0  0
  1 42  1  0  0  0  0
  1 26  1  0  0  0  0
  1 27  1  0  0  0  0
M  END
$$$$
