compound_48
  GFN2-xTB geometry (ORCA XTB2, DDCOSMO(water))

 48 54  0  0  0  0  0  0  0  0999 V2000
   -0.8796   -0.6551   -1.9765 C   0  0  0  0  0  0  0  0  0  0  0  0
   -1.3539   -0.8983   -0.7037 C   0  0  0  0  0  0  0  0  0  0  0  0
   -0.5582   -1.6138    0.1742 C   0  0  0  0  0  0  0  0  0  0  0  0
    0.6787   -2.1206   -0.2187 C   0  0  0  0  0  0  0  0  0  0  0  0
    1.1585   -1.9383   -1.5319 C   0  0  0  0  0  0  0  0  0  0  0  0
    0.3856   -1.1477   -2.4346 C   0  0  0  0  0  0  0  0  0  0  0  0
    4.4112   -4.5515   -0.0586 H   0  0  0  0  0  0  0  0  0  0  0  0
    5.5378   -4.8079   -2.2469 H   0  0  0  0  0  0  0  0  0  0  0  0
    3.6446   -2.9201    4.5833 H   0  0  0  0  0  0  0  0  0  0  0  0
    4.5666   -3.6132   -4.2311 H   0  0  0  0  0  0  0  0  0  0  0  0
    1.1603   -4.6317    4.0819 H   0  0  0  0  0  0  0  0  0  0  0  0
    3.4733   -4.6802    4.6990 H   0  0  0  0  0  0  0  0  0  0  0  0
    5.2967   -2.4359    3.3812 H   0  0  0  0  0  0  0  0  0  0  0  0
    5.9826   -3.2976    2.0027 H   0  0  0  0  0  0  0  0  0  0  0  0
    1.3548   -3.3001    5.2451 H   0  0  0  0  0  0  0  0  0  0  0  0
    1.2820   -0.8201    4.5711 H   0  0  0  0  0  0  0  0  0  0  0  0
    2.3836   -2.6504   -1.8211 C   0  0  0  0  0  0  0  0  0  0  0  0
    2.9448   -3.2952   -0.7626 N   0  0  0  0  0  0  0  0  0  0  0  0
    5.1086   -1.8158    0.4020 H   0  0  0  0  0  0  0  0  0  0  0  0
    2.5429   -2.2464   -3.9172 H   0  0  0  0  0  0  0  0  0  0  0  0
    4.0318   -4.0430   -0.9380 C   0  0  0  0  0  0  0  0  0  0  0  0
    4.6594   -4.1932   -2.1546 C   0  0  0  0  0  0  0  0  0  0  0  0
    4.1159   -3.5302   -3.2549 C   0  0  0  0  0  0  0  0  0  0  0  0
    2.9825   -2.7697   -3.0858 C   0  0  0  0  0  0  0  0  0  0  0  0
    0.5541   -0.6586   -3.7656 C   0  0  0  0  0  0  0  0  0  0  0  0
   -0.6016    0.0707   -4.0682 N   0  0  0  0  0  0  0  0  0  0  0  0
   -1.4998    0.1043   -3.0306 C   0  0  0  0  0  0  0  0  0  0  0  0
   -2.5944    0.6942   -3.0644 O   0  0  0  0  0  0  0  0  0  0  0  0
    1.4752   -0.7459   -4.6099 O   0  0  0  0  0  0  0  0  0  0  0  0
   -0.7360    0.5271   -4.9566 H   0  0  0  0  0  0  0  0  0  0  0  0
    1.9828   -3.0678    1.0142 Ru  0  0  0  0  0  0  0  0  0  0  0  0
   -2.3240   -0.5145   -0.4185 H   0  0  0  0  0  0  0  0  0  0  0  0
    0.2103   -5.3734    0.3639 O   0  0  0  0  0  0  0  0  0  0  0  0
    3.1167   -0.9935    1.2902 S   0  0  0  0  0  0  0  0  0  0  0  0
    2.7695   -0.4985    3.0435 C   0  0  0  0  0  0  0  0  0  0  0  0
    1.3789   -0.8909    3.4886 C   0  0  0  0  0  0  0  0  0  0  0  0
    0.8214   -2.5836    3.0241 S   0  0  0  0  0  0  0  0  0  0  0  0
    1.6457   -3.6707    4.2629 C   0  0  0  0  0  0  0  0  0  0  0  0
    3.1485   -3.7887    4.1622 C   0  0  0  0  0  0  0  0  0  0  0  0
    3.7638   -4.0207    2.4309 S   0  0  0  0  0  0  0  0  0  0  0  0
    5.1079   -2.7543    2.3593 C   0  0  0  0  0  0  0  0  0  0  0  0
    4.8549   -1.5748    1.4365 C   0  0  0  0  0  0  0  0  0  0  0  0
    5.4454   -0.7140    1.7509 H   0  0  0  0  0  0  0  0  0  0  0  0
    2.8619    0.5879    3.0606 H   0  0  0  0  0  0  0  0  0  0  0  0
    3.5379   -0.9327    3.6739 H   0  0  0  0  0  0  0  0  0  0  0  0
    0.6281   -0.2556    3.0161 H   0  0  0  0  0  0  0  0  0  0  0  0
   -0.9298   -1.7976    1.1746 H   0  0  0  0  0  0  0  0  0  0  0  0
    0.9570   -4.5484    0.6731 C   0  0  0  0  0  0  0  0  0  0  0  0
  1  6  1  0  0  0  0
 27 28  2  0  0  0  0
  5 17  1  0  0  0  0
 25 29  2  0  0  0  0
 23 24  4  0  0  0  0
 21 22  4  0  0  0  0
  1  2  2  0  0  0  0
  2  3  1  0  0  0  0
  3  4  2  0  0  0  0
 18 21  4  0  0  0  0
 22 23  4  0  0  0  0
 38 39  1  0  0  0  0
 35 36  1  0  0  0  0
 17 24  4  0  0  0  0
 41 42  1  0  0  0  0
  4  5  1  0  0  0  0
 26 27  1  0  0  0  0
 17 18  4  0  0  0  0
  5  6  2  0  0  0  0
  6 25  1  0  0  0  0
  8 22  1  0  0  0  0
 20 24  1  0  0  0  0
 25 26  1  0  0  0  0
 26 30  1  0  0  0  0
 10 23  1  0  0  0  0
  1 27  1  0  0  0  0
  2 32  1  0  0  0  0
  3 47  1  0  0  0  0
  7 21  1  0  0  0  0
 35 45  1  0  0  0  0
  9 39  1  0  0  0  0
 13 41  1  0  0  0  0
 34 42  1  0  0  0  0
 36 37  1  0  0  0  0
 16 36  1  0  0  0  0
 15 38  1  0  0  0  0
 37 38  1  0  0  0  0
 14 41  1  0  0  0  0
 42 43  1  0  0  0  0
 12 39  1  0  0  0  0
 35 44  1  0  0  0  0
 36 46  1  0  0  0  0
 11 38  1  0  0  0  0
 19 42  1  0  0  0  0
 40 41  1  0  0  0  0
 39 40  1  0  0  0  0
 34 35  1  0  0  0  0
 33 48  2  0  0  0  0
 31 48  1  0  0  0  0
 31  4  1  0  0  0  0
 31 18  1  0  0  0  0
 31 34  1  0  0  0  0
 31 37  1  0  0  0  0
 31 40  1  0  0  0  0
M  END
$$$$
