compound_72
  GFN2-xTB geometry (ORCA XTB2, DDCOSMO(water))

 71 78  0  0  0  0  0  0  0  0999 V2000
   -0.6261   -2.8649    1.1189 Ru  0  0  0  0  0  0  0  0  0  0  0  0
    1.5538   -3.1628   -0.7781 C   0  0  0  0  0  0  0  0  0  0  0  0
    2.5927   -3.8085   -1.4451 C   0  0  0  0  0  0  0  0  0  0  0  0
    2.9225   -5.1026   -1.0813 C   0  0  0  0  0  0  0  0  0  0  0  0
    2.1964   -5.7408   -0.0746 C   0  0  0  0  0  0  0  0  0  0  0  0
    1.1823   -5.0373    0.5398 C   0  0  0  0  0  0  0  0  0  0  0  0
    0.8701   -3.7802    0.2202 N   0  0  0  0  0  0  0  0  0  0  0  0
    1.9730   -4.4841    3.4464 H   0  0  0  0  0  0  0  0  0  0  0  0
    4.5884    2.4125   -9.8519 H   0  0  0  0  0  0  0  0  0  0  0  0
    2.4207   -6.7525    0.2179 H   0  0  0  0  0  0  0  0  0  0  0  0
    0.5856   -5.5051    1.3126 H   0  0  0  0  0  0  0  0  0  0  0  0
    1.0406   -1.8393   -1.0595 C   0  0  0  0  0  0  0  0  0  0  0  0
    1.5274   -0.9687   -2.0332 C   0  0  0  0  0  0  0  0  0  0  0  0
    0.8975    0.2471   -2.2546 C   0  0  0  0  0  0  0  0  0  0  0  0
   -0.2299    0.5646   -1.4927 C   0  0  0  0  0  0  0  0  0  0  0  0
   -0.7060   -0.2974   -0.5207 C   0  0  0  0  0  0  0  0  0  0  0  0
   -0.0776   -1.5073   -0.2710 C   0  0  0  0  0  0  0  0  0  0  0  0
    2.3767   -1.2472   -2.6368 H   0  0  0  0  0  0  0  0  0  0  0  0
    4.0227   -5.8439   -1.7786 C   0  0  0  0  0  0  0  0  0  0  0  0
   -0.7273    1.5093   -1.6547 H   0  0  0  0  0  0  0  0  0  0  0  0
   -1.5869   -0.0165    0.0386 H   0  0  0  0  0  0  0  0  0  0  0  0
   -2.0954   -3.9200   -0.5173 Cl  0  0  0  0  0  0  0  0  0  0  0  0
   -0.5924   -1.3155    2.7187 C   0  0  0  0  0  0  0  0  0  0  0  0
   -1.9598   -1.6746    2.6165 C   0  0  0  0  0  0  0  0  0  0  0  0
   -2.2717   -3.0440    2.7529 C   0  0  0  0  0  0  0  0  0  0  0  0
   -1.3173   -3.9901    3.2046 C   0  0  0  0  0  0  0  0  0  0  0  0
    0.0142   -3.6197    3.3833 C   0  0  0  0  0  0  0  0  0  0  0  0
    0.3900   -2.2883    3.0328 C   0  0  0  0  0  0  0  0  0  0  0  0
   -2.5651    0.3030    2.1347 H   0  0  0  0  0  0  0  0  0  0  0  0
   -0.3054   -0.2712    2.6468 H   0  0  0  0  0  0  0  0  0  0  0  0
   -3.3071   -3.3615    2.6728 H   0  0  0  0  0  0  0  0  0  0  0  0
    1.4138   -1.9696    3.2032 H   0  0  0  0  0  0  0  0  0  0  0  0
   -1.6462   -4.9908    3.4543 H   0  0  0  0  0  0  0  0  0  0  0  0
   -3.0368   -0.6234    2.4770 C   0  0  0  0  0  0  0  0  0  0  0  0
   -4.1106   -1.0235    1.4619 C   0  0  0  0  0  0  0  0  0  0  0  0
   -3.6584   -0.3640    3.8542 C   0  0  0  0  0  0  0  0  0  0  0  0
   -2.8981   -0.0363    4.5584 H   0  0  0  0  0  0  0  0  0  0  0  0
   -4.1224   -1.2692    4.2389 H   0  0  0  0  0  0  0  0  0  0  0  0
   -4.4186    0.4081    3.7750 H   0  0  0  0  0  0  0  0  0  0  0  0
   -3.6544   -1.4211    0.5523 H   0  0  0  0  0  0  0  0  0  0  0  0
   -4.7144   -0.1606    1.1953 H   0  0  0  0  0  0  0  0  0  0  0  0
   -4.7727   -1.7856    1.8659 H   0  0  0  0  0  0  0  0  0  0  0  0
    1.0246   -4.5499    3.9751 C   0  0  0  0  0  0  0  0  0  0  0  0
    0.6734   -5.5781    3.9601 H   0  0  0  0  0  0  0  0  0  0  0  0
    1.2005   -4.2624    5.0120 H   0  0  0  0  0  0  0  0  0  0  0  0
    1.3985    1.1765   -3.2783 C   0  0  0  0  0  0  0  0  0  0  0  0
    0.5185    1.8742   -4.1022 C   0  0  0  0  0  0  0  0  0  0  0  0
    0.9934    2.7434   -5.0652 C   0  0  0  0  0  0  0  0  0  0  0  0
    2.3573    2.9510   -5.2306 C   0  0  0  0  0  0  0  0  0  0  0  0
    3.2351    2.2554   -4.4079 C   0  0  0  0  0  0  0  0  0  0  0  0
    2.7661    1.3802   -3.4477 C   0  0  0  0  0  0  0  0  0  0  0  0
   -0.5449    1.7154   -4.0003 H   0  0  0  0  0  0  0  0  0  0  0  0
    0.2953    3.2709   -5.6995 H   0  0  0  0  0  0  0  0  0  0  0  0
    3.4637    0.8631   -2.8061 H   0  0  0  0  0  0  0  0  0  0  0  0
    4.2991    2.4066   -4.5198 H   0  0  0  0  0  0  0  0  0  0  0  0
    2.8711    3.8635   -6.3051 C   0  0  0  0  0  0  0  0  0  0  0  0
    3.1036    3.0847   -7.6056 C   0  0  0  0  0  0  0  0  0  0  0  0
    3.6254    3.9829   -8.7240 C   0  0  0  0  0  0  0  0  0  0  0  0
    3.8586    3.2029  -10.0123 C   0  0  0  0  0  0  0  0  0  0  0  0
    2.9051    4.7829   -8.9093 H   0  0  0  0  0  0  0  0  0  0  0  0
    4.2287    3.8593  -10.7960 H   0  0  0  0  0  0  0  0  0  0  0  0
    2.9322    2.7468  -10.3541 H   0  0  0  0  0  0  0  0  0  0  0  0
    3.8121    4.3180   -5.9893 H   0  0  0  0  0  0  0  0  0  0  0  0
    2.1500    4.6616   -6.4921 H   0  0  0  0  0  0  0  0  0  0  0  0
    2.1647    2.6209   -7.9175 H   0  0  0  0  0  0  0  0  0  0  0  0
    3.8202    2.2816   -7.4182 H   0  0  0  0  0  0  0  0  0  0  0  0
    4.5616    4.4471   -8.4062 H   0  0  0  0  0  0  0  0  0  0  0  0
    3.1246   -3.3022   -2.2329 H   0  0  0  0  0  0  0  0  0  0  0  0
    4.8419   -5.0501   -2.4832 F   0  0  0  0  0  0  0  0  0  0  0  0
    3.5544   -6.7616   -2.6530 F   0  0  0  0  0  0  0  0  0  0  0  0
    4.8074   -6.5299   -0.9262 F   0  0  0  0  0  0  0  0  0  0  0  0
  2 12  1  0  0  0  0
 19 69  1  0  0  0  0
 19 71  1  0  0  0  0
 14 46  1  0  0  0  0
 19 70  1  0  0  0  0
  5  6  4  0  0  0  0
 50 51  4  0  0  0  0
 47 48  4  0  0  0  0
 15 16  4  0  0  0  0
  3  4  4  0  0  0  0
 27 43  1  0  0  0  0
 16 17  4  0  0  0  0
 13 14  4  0  0  0  0
  4 19  1  0  0  0  0
 48 49  4  0  0  0  0
 49 50  4  0  0  0  0
 49 56  1  0  0  0  0
 46 47  4  0  0  0  0
 46 51  4  0  0  0  0
  2  3  4  0  0  0  0
 26 27  4  0  0  0  0
 12 13  4  0  0  0  0
  4  5  4  0  0  0  0
 14 15  4  0  0  0  0
  6  7  4  0  0  0  0
 24 34  1  0  0  0  0
 12 17  4  0  0  0  0
 24 25  4  0  0  0  0
 58 59  1  0  0  0  0
 57 58  1  0  0  0  0
 23 24  4  0  0  0  0
 25 26  4  0  0  0  0
 23 28  4  0  0  0  0
 34 35  1  0  0  0  0
 34 36  1  0  0  0  0
 56 57  1  0  0  0  0
  2  7  4  0  0  0  0
 27 28  4  0  0  0  0
  5 10  1  0  0  0  0
  3 68  1  0  0  0  0
 13 18  1  0  0  0  0
 51 54  1  0  0  0  0
 15 20  1  0  0  0  0
 47 52  1  0  0  0  0
 50 55  1  0  0  0  0
 16 21  1  0  0  0  0
 48 53  1  0  0  0  0
 26 33  1  0  0  0  0
  6 11  1  0  0  0  0
 23 30  1  0  0  0  0
 28 32  1  0  0  0  0
 25 31  1  0  0  0  0
 35 41  1  0  0  0  0
 36 39  1  0  0  0  0
 43 44  1  0  0  0  0
 36 37  1  0  0  0  0
 59 61  1  0  0  0  0
 35 42  1  0  0  0  0
 36 38  1  0  0  0  0
  9 59  1  0  0  0  0
 59 62  1  0  0  0  0
  8 43  1  0  0  0  0
 43 45  1  0  0  0  0
 56 63  1  0  0  0  0
 56 64  1  0  0  0  0
 58 67  1  0  0  0  0
 58 60  1  0  0  0  0
 57 66  1  0  0  0  0
 35 40  1  0  0  0  0
 57 65  1  0  0  0  0
 29 34  1  0  0  0  0
  1  7  1  0  0  0  0
  1 22  1  0  0  0  0
  1 24  1  0  0  0  0
  1 27  1  0  0  0  0
  1 26  1  0  0  0  0
  1 17  1  0  0  0  0
  1 23  1  0  0  0  0
M  END
$$$$
