compound_132
  GFN2-xTB geometry (ORCA XTB2, DDCOSMO(water))

 62 72  0  0  0  0  0  0  0  0999 V2000
   19.9188   -2.5398    0.7007 Ru  0  0  0  0  0  0  0  0  0  0  0  0
   24.6840   -1.5055    0.4643 C   0  0  0  0  0  0  0  0  0  0  0  0
   24.2807   -2.7747    0.1136 C   0  0  0  0  0  0  0  0  0  0  0  0
   22.9324   -3.1439    0.1808 C   0  0  0  0  0  0  0  0  0  0  0  0
   21.9938   -2.2998    0.5717 N   0  0  0  0  0  0  0  0  0  0  0  0
   21.5600    1.1594    1.7593 C   0  0  0  0  0  0  0  0  0  0  0  0
   22.8779    1.5986    1.7271 C   0  0  0  0  0  0  0  0  0  0  0  0
   23.9171    0.7571    1.3061 C   0  0  0  0  0  0  0  0  0  0  0  0
   23.7125   -0.5850    0.8939 C   0  0  0  0  0  0  0  0  0  0  0  0
   22.3739   -1.0522    0.9219 C   0  0  0  0  0  0  0  0  0  0  0  0
   21.3502   -0.1856    1.3386 C   0  0  0  0  0  0  0  0  0  0  0  0
   16.4685    1.9838    2.7012 H   0  0  0  0  0  0  0  0  0  0  0  0
   22.6207   -4.1461   -0.0786 H   0  0  0  0  0  0  0  0  0  0  0  0
   17.9737    3.8658    3.1432 H   0  0  0  0  0  0  0  0  0  0  0  0
   17.3261   -0.1672    1.8577 H   0  0  0  0  0  0  0  0  0  0  0  0
    8.7424   -4.3295   -0.5565 H   0  0  0  0  0  0  0  0  0  0  0  0
    9.8233   -4.7394    1.0038 C   0  0  0  0  0  0  0  0  0  0  0  0
   20.0689   -0.5628    1.3795 N   0  0  0  0  0  0  0  0  0  0  0  0
   19.3654    0.5251    1.8433 C   0  0  0  0  0  0  0  0  0  0  0  0
   20.2472    1.6236    2.0926 C   0  0  0  0  0  0  0  0  0  0  0  0
   17.9991    0.6541    2.0611 C   0  0  0  0  0  0  0  0  0  0  0  0
   17.5271    1.8652    2.5284 C   0  0  0  0  0  0  0  0  0  0  0  0
   18.3845    2.9374    2.7782 C   0  0  0  0  0  0  0  0  0  0  0  0
   19.7437    2.8311    2.5619 C   0  0  0  0  0  0  0  0  0  0  0  0
   20.4141    3.6576    2.7471 H   0  0  0  0  0  0  0  0  0  0  0  0
    8.7738   -5.0302    0.1089 O   0  0  0  0  0  0  0  0  0  0  0  0
   12.2096   -4.9788    2.0170 H   0  0  0  0  0  0  0  0  0  0  0  0
   11.3660   -5.6345   -0.2091 H   0  0  0  0  0  0  0  0  0  0  0  0
   11.1493   -3.8899   -0.4685 H   0  0  0  0  0  0  0  0  0  0  0  0
    9.6395   -3.7942    1.5291 H   0  0  0  0  0  0  0  0  0  0  0  0
    9.8177   -5.5505    1.7362 H   0  0  0  0  0  0  0  0  0  0  0  0
   25.1651    1.5042    1.3827 C   0  0  0  0  0  0  0  0  0  0  0  0
   24.8195    2.7716    1.8528 N   0  0  0  0  0  0  0  0  0  0  0  0
   23.4718    2.9077    2.0825 C   0  0  0  0  0  0  0  0  0  0  0  0
   26.3022    1.1715    1.1104 O   0  0  0  0  0  0  0  0  0  0  0  0
   22.9314    3.9144    2.4913 O   0  0  0  0  0  0  0  0  0  0  0  0
   25.4924    3.5079    2.0067 H   0  0  0  0  0  0  0  0  0  0  0  0
   18.4274   -5.1449    0.2154 H   0  0  0  0  0  0  0  0  0  0  0  0
   19.5099   -2.4869   -1.5046 C   0  0  0  0  0  0  0  0  0  0  0  0
   20.0411   -2.0093   -2.3165 H   0  0  0  0  0  0  0  0  0  0  0  0
   19.6748   -3.8452   -1.0813 C   0  0  0  0  0  0  0  0  0  0  0  0
   18.3787   -1.9690   -0.8545 C   0  0  0  0  0  0  0  0  0  0  0  0
   20.1154   -3.5440    3.5090 O   0  0  0  0  0  0  0  0  0  0  0  0
   20.3596   -4.5576   -1.5197 H   0  0  0  0  0  0  0  0  0  0  0  0
   18.6350   -4.1569   -0.1734 C   0  0  0  0  0  0  0  0  0  0  0  0
   17.8187   -2.9813   -0.0083 C   0  0  0  0  0  0  0  0  0  0  0  0
   17.9160   -1.0051   -1.0241 H   0  0  0  0  0  0  0  0  0  0  0  0
   20.0727   -3.1648    2.4215 C   0  0  0  0  0  0  0  0  0  0  0  0
   16.5007   -2.8305    0.6506 C   0  0  0  0  0  0  0  0  0  0  0  0
   15.9614   -1.7249    0.7546 O   0  0  0  0  0  0  0  0  0  0  0  0
   15.9315   -3.9574    1.1092 N   0  0  0  0  0  0  0  0  0  0  0  0
   14.6095   -3.9851    1.6869 C   0  0  0  0  0  0  0  0  0  0  0  0
   13.5433   -4.3235    0.6393 C   0  0  0  0  0  0  0  0  0  0  0  0
   13.5579   -3.5557   -0.1421 H   0  0  0  0  0  0  0  0  0  0  0  0
   16.3635   -4.8473    0.9170 H   0  0  0  0  0  0  0  0  0  0  0  0
   14.4009   -2.9976    2.1039 H   0  0  0  0  0  0  0  0  0  0  0  0
   14.5932   -4.7236    2.4901 H   0  0  0  0  0  0  0  0  0  0  0  0
   13.7884   -5.2918    0.1669 H   0  0  0  0  0  0  0  0  0  0  0  0
   12.2243   -4.3208    1.2424 N   0  0  0  0  0  0  0  0  0  0  0  0
   11.1799   -4.6707    0.2999 C   0  0  0  0  0  0  0  0  0  0  0  0
   25.0023   -3.5031   -0.2170 H   0  0  0  0  0  0  0  0  0  0  0  0
   25.7187   -1.2033    0.4215 H   0  0  0  0  0  0  0  0  0  0  0  0
  8  9  1  0  0  0  0
  6 20  1  0  0  0  0
  8 32  1  0  0  0  0
  7 34  1  0  0  0  0
 11 18  1  0  0  0  0
 46 49  1  0  0  0  0
  2  3  2  0  0  0  0
 49 51  1  0  0  0  0
 23 24  4  0  0  0  0
 21 22  4  0  0  0  0
  4  5  2  0  0  0  0
  5 10  1  0  0  0  0
 19 21  4  0  0  0  0
  6  7  1  0  0  0  0
 20 24  4  0  0  0  0
 22 23  4  0  0  0  0
  3  4  1  0  0  0  0
  7  8  2  0  0  0  0
 39 42  4  0  0  0  0
 10 11  1  0  0  0  0
  2  9  1  0  0  0  0
 17 26  1  0  0  0  0
 33 34  1  0  0  0  0
 18 19  1  0  0  0  0
 41 45  4  0  0  0  0
 17 60  1  0  0  0  0
  9 10  2  0  0  0  0
 52 53  1  0  0  0  0
  6 11  2  0  0  0  0
 19 20  4  0  0  0  0
 39 41  4  0  0  0  0
 32 33  1  0  0  0  0
 42 46  4  0  0  0  0
  3 61  1  0  0  0  0
 16 26  1  0  0  0  0
 51 55  1  0  0  0  0
 14 23  1  0  0  0  0
  2 62  1  0  0  0  0
 12 22  1  0  0  0  0
 33 37  1  0  0  0  0
 45 46  4  0  0  0  0
 24 25  1  0  0  0  0
 15 21  1  0  0  0  0
 41 44  1  0  0  0  0
  4 13  1  0  0  0  0
 39 40  1  0  0  0  0
 38 45  1  0  0  0  0
 42 47  1  0  0  0  0
 27 59  1  0  0  0  0
 52 57  1  0  0  0  0
 52 56  1  0  0  0  0
 17 31  1  0  0  0  0
 53 54  1  0  0  0  0
 29 60  1  0  0  0  0
 17 30  1  0  0  0  0
 53 58  1  0  0  0  0
 28 60  1  0  0  0  0
 51 52  1  0  0  0  0
 59 60  1  0  0  0  0
 53 59  1  0  0  0  0
 43 48  2  0  0  0  0
 34 36  2  0  0  0  0
 32 35  2  0  0  0  0
 49 50  2  0  0  0  0
  1 41  1  0  0  0  0
  1 45  1  0  0  0  0
  1 18  1  0  0  0  0
  1 39  1  0  0  0  0
  1 42  1  0  0  0  0
  1 48  1  0  0  0  0
  1 46  1  0  0  0  0
  1  5  1  0  0  0  0
M  END
$$$$
