compound_74
  GFN2-xTB geometry (ORCA XTB2, DDCOSMO(water))

 71 78  0  0  0  0  0  0  0  0999 V2000
   -0.6458   -2.8644    1.1297 Ru  0  0  0  0  0  0  0  0  0  0  0  0
    1.5554   -3.1771   -0.7664 C   0  0  0  0  0  0  0  0  0  0  0  0
    2.6070   -3.8241   -1.4136 C   0  0  0  0  0  0  0  0  0  0  0  0
    2.9380   -5.1139   -1.0583 C   0  0  0  0  0  0  0  0  0  0  0  0
    2.2006   -5.7674   -0.0689 C   0  0  0  0  0  0  0  0  0  0  0  0
    1.1699   -5.0594    0.5273 C   0  0  0  0  0  0  0  0  0  0  0  0
    0.8628   -3.8018    0.2108 N   0  0  0  0  0  0  0  0  0  0  0  0
    2.0108   -4.4302    3.3387 H   0  0  0  0  0  0  0  0  0  0  0  0
    4.6484    2.4093   -9.8266 H   0  0  0  0  0  0  0  0  0  0  0  0
    2.5188   -7.1687    0.3369 C   0  0  0  0  0  0  0  0  0  0  0  0
    0.5507   -5.5272    1.2842 H   0  0  0  0  0  0  0  0  0  0  0  0
    1.0388   -1.8490   -1.0506 C   0  0  0  0  0  0  0  0  0  0  0  0
    1.5292   -0.9809   -2.0210 C   0  0  0  0  0  0  0  0  0  0  0  0
    0.8981    0.2342   -2.2532 C   0  0  0  0  0  0  0  0  0  0  0  0
   -0.2359    0.5505   -1.5043 C   0  0  0  0  0  0  0  0  0  0  0  0
   -0.7158   -0.3111   -0.5328 C   0  0  0  0  0  0  0  0  0  0  0  0
   -0.0861   -1.5182   -0.2722 C   0  0  0  0  0  0  0  0  0  0  0  0
    2.3834   -1.2593   -2.6183 H   0  0  0  0  0  0  0  0  0  0  0  0
    3.1466   -3.3075   -2.1891 H   0  0  0  0  0  0  0  0  0  0  0  0
   -0.7374    1.4924   -1.6732 H   0  0  0  0  0  0  0  0  0  0  0  0
   -1.6046   -0.0323    0.0175 H   0  0  0  0  0  0  0  0  0  0  0  0
   -2.1427   -3.9099   -0.5194 Cl  0  0  0  0  0  0  0  0  0  0  0  0
   -0.6234   -1.2929    2.7030 C   0  0  0  0  0  0  0  0  0  0  0  0
   -1.9834   -1.6785    2.6190 C   0  0  0  0  0  0  0  0  0  0  0  0
   -2.2678   -3.0539    2.7622 C   0  0  0  0  0  0  0  0  0  0  0  0
   -1.2874   -3.9820    3.1919 C   0  0  0  0  0  0  0  0  0  0  0  0
    0.0427   -3.5858    3.3413 C   0  0  0  0  0  0  0  0  0  0  0  0
    0.3862   -2.2424    3.0059 C   0  0  0  0  0  0  0  0  0  0  0  0
   -2.6258    0.2864    2.1368 H   0  0  0  0  0  0  0  0  0  0  0  0
   -0.3595   -0.2430    2.6242 H   0  0  0  0  0  0  0  0  0  0  0  0
   -3.2987   -3.3906    2.6990 H   0  0  0  0  0  0  0  0  0  0  0  0
    1.4041   -1.9017    3.1675 H   0  0  0  0  0  0  0  0  0  0  0  0
   -1.5911   -4.9905    3.4436 H   0  0  0  0  0  0  0  0  0  0  0  0
   -3.0797   -0.6462    2.4883 C   0  0  0  0  0  0  0  0  0  0  0  0
   -4.1577   -1.0637    1.4850 C   0  0  0  0  0  0  0  0  0  0  0  0
   -3.6927   -0.3918    3.8702 C   0  0  0  0  0  0  0  0  0  0  0  0
   -2.9305   -0.0506    4.5660 H   0  0  0  0  0  0  0  0  0  0  0  0
   -4.1383   -1.3037    4.2611 H   0  0  0  0  0  0  0  0  0  0  0  0
   -4.4658    0.3679    3.7961 H   0  0  0  0  0  0  0  0  0  0  0  0
   -3.7049   -1.4414    0.5652 H   0  0  0  0  0  0  0  0  0  0  0  0
   -4.7865   -0.2139    1.2345 H   0  0  0  0  0  0  0  0  0  0  0  0
   -4.7937   -1.8470    1.8907 H   0  0  0  0  0  0  0  0  0  0  0  0
    1.0840   -4.5019    3.9040 C   0  0  0  0  0  0  0  0  0  0  0  0
    0.7428   -5.5336    3.9065 H   0  0  0  0  0  0  0  0  0  0  0  0
    1.2942   -4.2054    4.9318 H   0  0  0  0  0  0  0  0  0  0  0  0
    1.4069    1.1612   -3.2750 C   0  0  0  0  0  0  0  0  0  0  0  0
    0.5337    1.8545   -4.1098 C   0  0  0  0  0  0  0  0  0  0  0  0
    1.0156    2.7241   -5.0690 C   0  0  0  0  0  0  0  0  0  0  0  0
    2.3803    2.9365   -5.2204 C   0  0  0  0  0  0  0  0  0  0  0  0
    3.2516    2.2444   -4.3879 C   0  0  0  0  0  0  0  0  0  0  0  0
    2.7755    1.3693   -3.4312 C   0  0  0  0  0  0  0  0  0  0  0  0
   -0.5304    1.6921   -4.0177 H   0  0  0  0  0  0  0  0  0  0  0  0
    0.3217    3.2484   -5.7107 H   0  0  0  0  0  0  0  0  0  0  0  0
    3.4671    0.8552   -2.7808 H   0  0  0  0  0  0  0  0  0  0  0  0
    4.3162    2.3990   -4.4888 H   0  0  0  0  0  0  0  0  0  0  0  0
    2.9016    3.8505   -6.2901 C   0  0  0  0  0  0  0  0  0  0  0  0
    3.1456    3.0737   -7.5897 C   0  0  0  0  0  0  0  0  0  0  0  0
    3.6719    3.9749   -8.7037 C   0  0  0  0  0  0  0  0  0  0  0  0
    3.9167    3.1970   -9.9912 C   0  0  0  0  0  0  0  0  0  0  0  0
    2.9501    4.7725   -8.8930 H   0  0  0  0  0  0  0  0  0  0  0  0
    4.2893    3.8557  -10.7717 H   0  0  0  0  0  0  0  0  0  0  0  0
    2.9941    2.7378  -10.3394 H   0  0  0  0  0  0  0  0  0  0  0  0
    3.8392    4.3060   -5.9661 H   0  0  0  0  0  0  0  0  0  0  0  0
    2.1807    4.6477   -6.4816 H   0  0  0  0  0  0  0  0  0  0  0  0
    2.2101    2.6073   -7.9081 H   0  0  0  0  0  0  0  0  0  0  0  0
    3.8634    2.2729   -7.3979 H   0  0  0  0  0  0  0  0  0  0  0  0
    4.6042    4.4420   -8.3788 H   0  0  0  0  0  0  0  0  0  0  0  0
    3.7524   -5.6248   -1.5469 H   0  0  0  0  0  0  0  0  0  0  0  0
    3.5267   -7.2174    0.7443 H   0  0  0  0  0  0  0  0  0  0  0  0
    2.4777   -7.8257   -0.5292 H   0  0  0  0  0  0  0  0  0  0  0  0
    1.8169   -7.5266    1.0836 H   0  0  0  0  0  0  0  0  0  0  0  0
  2 12  1  0  0  0  0
 14 46  1  0  0  0  0
  3  4  4  0  0  0  0
 50 51  4  0  0  0  0
 47 48  4  0  0  0  0
  5 10  1  0  0  0  0
 15 16  4  0  0  0  0
  5  6  4  0  0  0  0
 16 17  4  0  0  0  0
 27 43  1  0  0  0  0
 13 14  4  0  0  0  0
 48 49  4  0  0  0  0
 49 50  4  0  0  0  0
 49 56  1  0  0  0  0
 12 13  4  0  0  0  0
 46 47  4  0  0  0  0
 46 51  4  0  0  0  0
  2  3  4  0  0  0  0
 14 15  4  0  0  0  0
 26 27  4  0  0  0  0
  6  7  4  0  0  0  0
  4  5  4  0  0  0  0
 24 34  1  0  0  0  0
 12 17  4  0  0  0  0
 24 25  4  0  0  0  0
 58 59  1  0  0  0  0
 57 58  1  0  0  0  0
  2  7  4  0  0  0  0
 23 24  4  0  0  0  0
 25 26  4  0  0  0  0
 23 28  4  0  0  0  0
 34 35  1  0  0  0  0
 34 36  1  0  0  0  0
 56 57  1  0  0  0  0
 27 28  4  0  0  0  0
  3 19  1  0  0  0  0
  4 68  1  0  0  0  0
 13 18  1  0  0  0  0
 51 54  1  0  0  0  0
 15 20  1  0  0  0  0
 47 52  1  0  0  0  0
 50 55  1  0  0  0  0
 48 53  1  0  0  0  0
 16 21  1  0  0  0  0
 26 33  1  0  0  0  0
  6 11  1  0  0  0  0
 23 30  1  0  0  0  0
 10 71  1  0  0  0  0
 28 32  1  0  0  0  0
 25 31  1  0  0  0  0
 35 41  1  0  0  0  0
 36 39  1  0  0  0  0
 43 44  1  0  0  0  0
 36 37  1  0  0  0  0
 59 61  1  0  0  0  0
 35 42  1  0  0  0  0
  9 59  1  0  0  0  0
 36 38  1  0  0  0  0
 59 62  1  0  0  0  0
 10 70  1  0  0  0  0
  8 43  1  0  0  0  0
 10 69  1  0  0  0  0
 43 45  1  0  0  0  0
 56 63  1  0  0  0  0
 56 64  1  0  0  0  0
 58 67  1  0  0  0  0
 58 60  1  0  0  0  0
 57 66  1  0  0  0  0
 35 40  1  0  0  0  0
 57 65  1  0  0  0  0
 29 34  1  0  0  0  0
  1  7  1  0  0  0  0
  1 22  1  0  0  0  0
  1 24  1  0  0  0  0
  1 27  1  0  0  0  0
  1 26  1  0  0  0  0
  1 17  1  0  0  0  0
  1 23  1  0  0  0  0
M  END
$$$$
