compound_29
  GFN2-xTB geometry (ORCA XTB2, DDCOSMO(water))

 47 57  0  0  0  0  0  0  0  0999 V2000
   -0.0578   -1.1061   -1.2011 C   0  0  0  0  0  0  0  0  0  0  0  0
   -1.0377   -1.2667   -0.1917 C   0  0  0  0  0  0  0  0  0  0  0  0
   -0.9585   -2.4561    0.5822 C   0  0  0  0  0  0  0  0  0  0  0  0
    0.0604   -3.3843    0.3099 C   0  0  0  0  0  0  0  0  0  0  0  0
    1.0415   -3.2217   -0.7166 C   0  0  0  0  0  0  0  0  0  0  0  0
    0.9462   -2.0539   -1.4556 C   0  0  0  0  0  0  0  0  0  0  0  0
    1.3884   -6.9827    1.5945 H   0  0  0  0  0  0  0  0  0  0  0  0
    3.3609   -7.8053    0.3472 H   0  0  0  0  0  0  0  0  0  0  0  0
   -3.4699   -2.1790    2.6623 H   0  0  0  0  0  0  0  0  0  0  0  0
   -2.6603   -6.2698    4.6344 H   0  0  0  0  0  0  0  0  0  0  0  0
   -2.0791   -0.3793    0.1248 C   0  0  0  0  0  0  0  0  0  0  0  0
   -2.9214   -0.7426    1.1505 C   0  0  0  0  0  0  0  0  0  0  0  0
   -2.7771   -1.9334    1.8704 C   0  0  0  0  0  0  0  0  0  0  0  0
   -1.8013   -2.7795    1.5857 N   0  0  0  0  0  0  0  0  0  0  0  0
   -2.2094    0.5435   -0.4171 H   0  0  0  0  0  0  0  0  0  0  0  0
   -0.2332   -2.6677    4.6185 H   0  0  0  0  0  0  0  0  0  0  0  0
    1.8405   -4.4076   -0.6188 C   0  0  0  0  0  0  0  0  0  0  0  0
    1.2745   -5.1737    0.4468 C   0  0  0  0  0  0  0  0  0  0  0  0
    0.1973   -4.5175    0.9984 N   0  0  0  0  0  0  0  0  0  0  0  0
    3.3831   -4.3045   -2.1191 H   0  0  0  0  0  0  0  0  0  0  0  0
    1.8218   -6.4007    0.7965 C   0  0  0  0  0  0  0  0  0  0  0  0
    2.9191   -6.8526    0.0938 C   0  0  0  0  0  0  0  0  0  0  0  0
    3.4812   -6.1043   -0.9497 C   0  0  0  0  0  0  0  0  0  0  0  0
    2.9459   -4.8748   -1.3137 C   0  0  0  0  0  0  0  0  0  0  0  0
    1.7710   -1.5402   -2.5728 C   0  0  0  0  0  0  0  0  0  0  0  0
    1.2234   -0.3304   -2.9223 N   0  0  0  0  0  0  0  0  0  0  0  0
    0.1195   -0.0024   -2.1316 C   0  0  0  0  0  0  0  0  0  0  0  0
   -0.5094    1.0338   -2.2536 O   0  0  0  0  0  0  0  0  0  0  0  0
    2.7455   -2.0386   -3.1020 O   0  0  0  0  0  0  0  0  0  0  0  0
    4.8358   -7.4172   -1.2854 H   0  0  0  0  0  0  0  0  0  0  0  0
   -1.2654   -4.6059    2.4883 Ru  0  0  0  0  0  0  0  0  0  0  0  0
   -2.3936   -5.5245    1.3646 C   0  0  0  0  0  0  0  0  0  0  0  0
    1.3619   -4.7352    4.0477 H   0  0  0  0  0  0  0  0  0  0  0  0
   -0.5573   -3.6774    4.4041 C   0  0  0  0  0  0  0  0  0  0  0  0
   -1.8893   -4.1755    4.5820 C   0  0  0  0  0  0  0  0  0  0  0  0
   -1.8487   -5.5838    4.4288 C   0  0  0  0  0  0  0  0  0  0  0  0
   -0.5079   -5.9563    4.1014 C   0  0  0  0  0  0  0  0  0  0  0  0
    0.2841   -4.7696    4.1319 C   0  0  0  0  0  0  0  0  0  0  0  0
   -2.7236   -3.6088    4.9703 H   0  0  0  0  0  0  0  0  0  0  0  0
   -0.1252   -6.9670    4.0856 H   0  0  0  0  0  0  0  0  0  0  0  0
   -3.9390    0.0726    1.4979 F   0  0  0  0  0  0  0  0  0  0  0  0
    4.5626   -6.5554   -1.6355 O   0  0  0  0  0  0  0  0  0  0  0  0
   -3.1057   -6.1031    0.6661 O   0  0  0  0  0  0  0  0  0  0  0  0
    1.7332    0.5143   -3.9756 C   0  0  0  0  0  0  0  0  0  0  0  0
    2.8210    0.4669   -3.9716 H   0  0  0  0  0  0  0  0  0  0  0  0
    1.3925    1.5308   -3.7876 H   0  0  0  0  0  0  0  0  0  0  0  0
    1.3637    0.1794   -4.9458 H   0  0  0  0  0  0  0  0  0  0  0  0
  2  3  1  0  0  0  0
  5 17  1  0  0  0  0
  1 27  1  0  0  0  0
 23 42  1  0  0  0  0
 12 41  1  0  0  0  0
  4 19  1  0  0  0  0
  6 25  1  0  0  0  0
 11 12  4  0  0  0  0
 21 22  4  0  0  0  0
  5  6  4  0  0  0  0
 13 14  4  0  0  0  0
 17 24  4  0  0  0  0
 18 21  4  0  0  0  0
 23 24  4  0  0  0  0
 12 13  4  0  0  0  0
 22 23  4  0  0  0  0
  1  6  4  0  0  0  0
  2 11  4  0  0  0  0
  3  4  4  0  0  0  0
 34 38  4  0  0  0  0
 25 26  1  0  0  0  0
  3 14  4  0  0  0  0
 18 19  1  0  0  0  0
  1  2  4  0  0  0  0
 35 36  4  0  0  0  0
 37 38  4  0  0  0  0
 17 18  4  0  0  0  0
  4  5  4  0  0  0  0
 36 37  4  0  0  0  0
 34 35  4  0  0  0  0
 26 27  1  0  0  0  0
 11 15  1  0  0  0  0
  7 21  1  0  0  0  0
 20 24  1  0  0  0  0
  8 22  1  0  0  0  0
  9 13  1  0  0  0  0
 30 42  1  0  0  0  0
 35 39  1  0  0  0  0
 37 40  1  0  0  0  0
 33 38  1  0  0  0  0
 16 34  1  0  0  0  0
 10 36  1  0  0  0  0
 44 46  1  0  0  0  0
 44 45  1  0  0  0  0
 44 47  1  0  0  0  0
 26 44  1  0  0  0  0
 32 43  2  0  0  0  0
 25 29  2  0  0  0  0
 27 28  2  0  0  0  0
 31 19  1  0  0  0  0
 31 32  1  0  0  0  0
 31 34  1  0  0  0  0
 31 35  1  0  0  0  0
 31 36  1  0  0  0  0
 31 37  1  0  0  0  0
 31 38  1  0  0  0  0
 31 14  1  0  0  0  0
M  END
$$$$
