compound_28
  GFN2-xTB geometry (ORCA XTB2, DDCOSMO(water))

 45 55  0  0  0  0  0  0  0  0999 V2000
    0.2213   -0.8438   -1.0256 C   0  0  0  0  0  0  0  0  0  0  0  0
   -0.7205   -0.9596    0.0298 C   0  0  0  0  0  0  0  0  0  0  0  0
   -0.6940   -2.1717    0.7646 C   0  0  0  0  0  0  0  0  0  0  0  0
    0.2419   -3.1601    0.4228 C   0  0  0  0  0  0  0  0  0  0  0  0
    1.1677   -3.0544   -0.6550 C   0  0  0  0  0  0  0  0  0  0  0  0
    1.1286   -1.8603   -1.3620 C   0  0  0  0  0  0  0  0  0  0  0  0
    1.2520   -6.9244    1.4944 H   0  0  0  0  0  0  0  0  0  0  0  0
    3.0383   -7.8993    0.0797 H   0  0  0  0  0  0  0  0  0  0  0  0
   -3.1256   -1.8214    2.9051 H   0  0  0  0  0  0  0  0  0  0  0  0
   -1.2672   -7.1856    3.8183 H   0  0  0  0  0  0  0  0  0  0  0  0
   -1.6902   -0.0190    0.4149 C   0  0  0  0  0  0  0  0  0  0  0  0
   -2.5409   -0.3373    1.4509 C   0  0  0  0  0  0  0  0  0  0  0  0
   -2.4433   -1.5681    2.1063 C   0  0  0  0  0  0  0  0  0  0  0  0
   -1.5355   -2.4725    1.7773 N   0  0  0  0  0  0  0  0  0  0  0  0
   -1.7540    0.9227   -0.1072 H   0  0  0  0  0  0  0  0  0  0  0  0
   -2.3574   -3.1607    5.0355 H   0  0  0  0  0  0  0  0  0  0  0  0
    1.8487   -4.3153   -0.6491 C   0  0  0  0  0  0  0  0  0  0  0  0
    1.2770   -5.0642    0.4250 C   0  0  0  0  0  0  0  0  0  0  0  0
    0.3108   -4.3264    1.0700 N   0  0  0  0  0  0  0  0  0  0  0  0
    3.2831   -4.3077   -2.2423 H   0  0  0  0  0  0  0  0  0  0  0  0
    1.7008   -6.3588    0.6924 C   0  0  0  0  0  0  0  0  0  0  0  0
    2.6934   -6.8938   -0.1050 C   0  0  0  0  0  0  0  0  0  0  0  0
    3.2628   -6.1639   -1.1490 C   0  0  0  0  0  0  0  0  0  0  0  0
    2.8503   -4.8766   -1.4323 C   0  0  0  0  0  0  0  0  0  0  0  0
    1.9226   -1.3935   -2.5186 C   0  0  0  0  0  0  0  0  0  0  0  0
    1.4513   -0.1349   -2.8015 N   0  0  0  0  0  0  0  0  0  0  0  0
    0.4241    0.2645   -1.9433 C   0  0  0  0  0  0  0  0  0  0  0  0
   -0.1321    1.3449   -2.0168 O   0  0  0  0  0  0  0  0  0  0  0  0
    2.8112   -1.9592   -3.1236 O   0  0  0  0  0  0  0  0  0  0  0  0
    1.8046    0.4429   -3.5495 H   0  0  0  0  0  0  0  0  0  0  0  0
   -1.2149   -4.4106    2.5292 Ru  0  0  0  0  0  0  0  0  0  0  0  0
   -2.2358   -5.2018    0.7569 P   0  0  0  0  0  0  0  0  0  0  0  0
    0.3190   -3.2921    4.8852 H   0  0  0  0  0  0  0  0  0  0  0  0
   -1.7930   -3.9914    4.6362 C   0  0  0  0  0  0  0  0  0  0  0  0
   -2.3120   -5.2551    4.2867 C   0  0  0  0  0  0  0  0  0  0  0  0
   -1.2035   -6.1184    3.9798 C   0  0  0  0  0  0  0  0  0  0  0  0
   -0.0166   -5.3763    4.1601 C   0  0  0  0  0  0  0  0  0  0  0  0
   -0.3680   -4.0455    4.5246 C   0  0  0  0  0  0  0  0  0  0  0  0
   -3.3426   -5.5703    4.3782 H   0  0  0  0  0  0  0  0  0  0  0  0
    0.9905   -5.7649    4.1006 H   0  0  0  0  0  0  0  0  0  0  0  0
   -3.2975    0.3614    1.7672 H   0  0  0  0  0  0  0  0  0  0  0  0
    4.0373   -6.6166   -1.7485 H   0  0  0  0  0  0  0  0  0  0  0  0
   -2.3323   -4.2693   -0.5452 F   0  0  0  0  0  0  0  0  0  0  0  0
   -1.5951   -6.4065   -0.0775 F   0  0  0  0  0  0  0  0  0  0  0  0
   -3.7190   -5.7683    0.5640 F   0  0  0  0  0  0  0  0  0  0  0  0
 32 44  1  0  0  0  0
 32 45  1  0  0  0  0
  1  2  1  0  0  0  0
 32 43  1  0  0  0  0
  5 17  1  0  0  0  0
  1 27  1  0  0  0  0
  6 25  1  0  0  0  0
  4 19  1  0  0  0  0
 11 12  2  0  0  0  0
 21 22  4  0  0  0  0
 23 24  4  0  0  0  0
 13 14  2  0  0  0  0
  3 14  1  0  0  0  0
 18 21  4  0  0  0  0
  5  6  1  0  0  0  0
 17 24  4  0  0  0  0
 22 23  4  0  0  0  0
 12 13  1  0  0  0  0
  1  6  2  0  0  0  0
  3  4  1  0  0  0  0
  2 11  1  0  0  0  0
 34 35  4  0  0  0  0
 25 26  1  0  0  0  0
 36 37  4  0  0  0  0
 18 19  1  0  0  0  0
  2  3  2  0  0  0  0
 37 38  4  0  0  0  0
  4  5  2  0  0  0  0
 17 18  4  0  0  0  0
 34 38  4  0  0  0  0
 26 27  1  0  0  0  0
 12 41  1  0  0  0  0
 35 36  4  0  0  0  0
 11 15  1  0  0  0  0
  8 22  1  0  0  0  0
 23 42  1  0  0  0  0
  7 21  1  0  0  0  0
 26 30  1  0  0  0  0
 20 24  1  0  0  0  0
  9 13  1  0  0  0  0
 16 34  1  0  0  0  0
 37 40  1  0  0  0  0
 10 36  1  0  0  0  0
 33 38  1  0  0  0  0
 35 39  1  0  0  0  0
 25 29  2  0  0  0  0
 27 28  2  0  0  0  0
 31 19  1  0  0  0  0
 31 34  1  0  0  0  0
 31 35  1  0  0  0  0
 31 36  1  0  0  0  0
 31 37  1  0  0  0  0
 31 38  1  0  0  0  0
 31 14  1  0  0  0  0
 31 32  1  0  0  0  0
M  END
$$$$
