compound_71
  GFN2-xTB geometry (ORCA XTB2, DDCOSMO(water))

 71 78  0  0  0  0  0  0  0  0999 V2000
   -0.6407   -2.8536    1.1421 Ru  0  0  0  0  0  0  0  0  0  0  0  0
    1.5544   -3.1740   -0.7698 C   0  0  0  0  0  0  0  0  0  0  0  0
    2.5949   -3.8168   -1.4339 C   0  0  0  0  0  0  0  0  0  0  0  0
    2.9428   -5.1171   -1.1042 C   0  0  0  0  0  0  0  0  0  0  0  0
    2.1968   -5.7434   -0.1028 C   0  0  0  0  0  0  0  0  0  0  0  0
    1.1802   -5.0545    0.5206 C   0  0  0  0  0  0  0  0  0  0  0  0
    0.8694   -3.7938    0.2178 N   0  0  0  0  0  0  0  0  0  0  0  0
    2.0067   -4.4251    3.3679 H   0  0  0  0  0  0  0  0  0  0  0  0
    4.5989    2.4006   -9.8491 H   0  0  0  0  0  0  0  0  0  0  0  0
    2.4082   -6.7599    0.1850 H   0  0  0  0  0  0  0  0  0  0  0  0
    0.5774   -5.5282    1.2861 H   0  0  0  0  0  0  0  0  0  0  0  0
    1.0400   -1.8429   -1.0473 C   0  0  0  0  0  0  0  0  0  0  0  0
    1.5262   -0.9754   -2.0206 C   0  0  0  0  0  0  0  0  0  0  0  0
    0.8982    0.2421   -2.2477 C   0  0  0  0  0  0  0  0  0  0  0  0
   -0.2291    0.5620   -1.4900 C   0  0  0  0  0  0  0  0  0  0  0  0
   -0.7048   -0.2984   -0.5158 C   0  0  0  0  0  0  0  0  0  0  0  0
   -0.0783   -1.5088   -0.2604 C   0  0  0  0  0  0  0  0  0  0  0  0
    2.3751   -1.2556   -2.6243 H   0  0  0  0  0  0  0  0  0  0  0  0
    4.0506   -5.8373   -1.7947 C   0  0  0  0  0  0  0  0  0  0  0  0
   -0.7284    1.5058   -1.6546 H   0  0  0  0  0  0  0  0  0  0  0  0
   -1.5884   -0.0163    0.0410 H   0  0  0  0  0  0  0  0  0  0  0  0
   -2.1351   -3.9019   -0.5104 Cl  0  0  0  0  0  0  0  0  0  0  0  0
   -0.6175   -1.2872    2.7168 C   0  0  0  0  0  0  0  0  0  0  0  0
   -1.9790   -1.6674    2.6268 C   0  0  0  0  0  0  0  0  0  0  0  0
   -2.2690   -3.0420    2.7646 C   0  0  0  0  0  0  0  0  0  0  0  0
   -1.2937   -3.9754    3.1949 C   0  0  0  0  0  0  0  0  0  0  0  0
    0.0370   -3.5845    3.3516 C   0  0  0  0  0  0  0  0  0  0  0  0
    0.3873   -2.2415    3.0218 C   0  0  0  0  0  0  0  0  0  0  0  0
   -2.6129    0.3014    2.1490 H   0  0  0  0  0  0  0  0  0  0  0  0
   -0.3494   -0.2380    2.6424 H   0  0  0  0  0  0  0  0  0  0  0  0
   -3.3007   -3.3750    2.6961 H   0  0  0  0  0  0  0  0  0  0  0  0
    1.4057   -1.9052    3.1894 H   0  0  0  0  0  0  0  0  0  0  0  0
   -1.6018   -4.9838    3.4418 H   0  0  0  0  0  0  0  0  0  0  0  0
   -3.0711   -0.6308    2.4960 C   0  0  0  0  0  0  0  0  0  0  0  0
   -4.1475   -1.0412    1.4880 C   0  0  0  0  0  0  0  0  0  0  0  0
   -3.6875   -0.3784    3.8767 C   0  0  0  0  0  0  0  0  0  0  0  0
   -2.9262   -0.0420    4.5759 H   0  0  0  0  0  0  0  0  0  0  0  0
   -4.1373   -1.2900    4.2635 H   0  0  0  0  0  0  0  0  0  0  0  0
   -4.4577    0.3842    3.8026 H   0  0  0  0  0  0  0  0  0  0  0  0
   -3.6933   -1.4187    0.5688 H   0  0  0  0  0  0  0  0  0  0  0  0
   -4.7720   -0.1883    1.2377 H   0  0  0  0  0  0  0  0  0  0  0  0
   -4.7881   -1.8229    1.8897 H   0  0  0  0  0  0  0  0  0  0  0  0
    1.0717   -4.5059    3.9182 C   0  0  0  0  0  0  0  0  0  0  0  0
    0.7328   -5.5384    3.9028 H   0  0  0  0  0  0  0  0  0  0  0  0
    1.2655   -4.2221    4.9529 H   0  0  0  0  0  0  0  0  0  0  0  0
    1.4026    1.1674   -3.2731 C   0  0  0  0  0  0  0  0  0  0  0  0
    0.5255    1.8638   -4.1012 C   0  0  0  0  0  0  0  0  0  0  0  0
    1.0031    2.7314   -5.0643 C   0  0  0  0  0  0  0  0  0  0  0  0
    2.3674    2.9386   -5.2265 C   0  0  0  0  0  0  0  0  0  0  0  0
    3.2425    2.2436   -4.4006 C   0  0  0  0  0  0  0  0  0  0  0  0
    2.7707    1.3705   -3.4399 C   0  0  0  0  0  0  0  0  0  0  0  0
   -0.5384    1.7056   -4.0008 H   0  0  0  0  0  0  0  0  0  0  0  0
    0.3062    3.2581   -5.7007 H   0  0  0  0  0  0  0  0  0  0  0  0
    3.4654    0.8542   -2.7946 H   0  0  0  0  0  0  0  0  0  0  0  0
    4.3069    2.3944   -4.5098 H   0  0  0  0  0  0  0  0  0  0  0  0
    2.8837    3.8502   -6.3007 C   0  0  0  0  0  0  0  0  0  0  0  0
    3.1148    3.0718   -7.6018 C   0  0  0  0  0  0  0  0  0  0  0  0
    3.6362    3.9703   -8.7201 C   0  0  0  0  0  0  0  0  0  0  0  0
    3.8688    3.1907  -10.0089 C   0  0  0  0  0  0  0  0  0  0  0  0
    2.9160    4.7705   -8.9047 H   0  0  0  0  0  0  0  0  0  0  0  0
    4.2380    3.8476  -10.7926 H   0  0  0  0  0  0  0  0  0  0  0  0
    2.9421    2.7346  -10.3500 H   0  0  0  0  0  0  0  0  0  0  0  0
    3.8255    4.3024   -5.9842 H   0  0  0  0  0  0  0  0  0  0  0  0
    2.1643    4.6499   -6.4870 H   0  0  0  0  0  0  0  0  0  0  0  0
    2.1751    2.6090   -7.9128 H   0  0  0  0  0  0  0  0  0  0  0  0
    3.8309    2.2683   -7.4150 H   0  0  0  0  0  0  0  0  0  0  0  0
    4.5726    4.4343   -8.4024 H   0  0  0  0  0  0  0  0  0  0  0  0
    3.1219   -3.2922   -2.2136 H   0  0  0  0  0  0  0  0  0  0  0  0
    4.6121   -5.1647   -2.4354 H   0  0  0  0  0  0  0  0  0  0  0  0
    3.6404   -6.6406   -2.4048 H   0  0  0  0  0  0  0  0  0  0  0  0
    4.7209   -6.2858   -1.0653 H   0  0  0  0  0  0  0  0  0  0  0  0
  2 12  1  0  0  0  0
 14 46  1  0  0  0  0
  5  6  4  0  0  0  0
 50 51  4  0  0  0  0
 47 48  4  0  0  0  0
  4 19  1  0  0  0  0
 15 16  4  0  0  0  0
  3  4  4  0  0  0  0
 16 17  4  0  0  0  0
 27 43  1  0  0  0  0
 13 14  4  0  0  0  0
 48 49  4  0  0  0  0
 49 50  4  0  0  0  0
 49 56  1  0  0  0  0
 12 13  4  0  0  0  0
  2  3  4  0  0  0  0
 46 47  4  0  0  0  0
 46 51  4  0  0  0  0
 14 15  4  0  0  0  0
 26 27  4  0  0  0  0
  6  7  4  0  0  0  0
  4  5  4  0  0  0  0
 24 34  1  0  0  0  0
 12 17  4  0  0  0  0
 24 25  4  0  0  0  0
 58 59  1  0  0  0  0
 57 58  1  0  0  0  0
 23 24  4  0  0  0  0
  2  7  4  0  0  0  0
 25 26  4  0  0  0  0
 34 35  1  0  0  0  0
 23 28  4  0  0  0  0
 34 36  1  0  0  0  0
 56 57  1  0  0  0  0
 27 28  4  0  0  0  0
  5 10  1  0  0  0  0
  3 68  1  0  0  0  0
 13 18  1  0  0  0  0
 51 54  1  0  0  0  0
 47 52  1  0  0  0  0
 15 20  1  0  0  0  0
 50 55  1  0  0  0  0
 48 53  1  0  0  0  0
 16 21  1  0  0  0  0
 26 33  1  0  0  0  0
  6 11  1  0  0  0  0
 19 69  1  0  0  0  0
 23 30  1  0  0  0  0
 28 32  1  0  0  0  0
 25 31  1  0  0  0  0
 35 41  1  0  0  0  0
 36 39  1  0  0  0  0
 43 44  1  0  0  0  0
 36 37  1  0  0  0  0
 59 61  1  0  0  0  0
 19 71  1  0  0  0  0
 35 42  1  0  0  0  0
  9 59  1  0  0  0  0
 36 38  1  0  0  0  0
 59 62  1  0  0  0  0
  8 43  1  0  0  0  0
 19 70  1  0  0  0  0
 43 45  1  0  0  0  0
 56 63  1  0  0  0  0
 56 64  1  0  0  0  0
 58 67  1  0  0  0  0
 58 60  1  0  0  0  0
 57 66  1  0  0  0  0
 35 40  1  0  0  0  0
 57 65  1  0  0  0  0
 29 34  1  0  0  0  0
  1  7  1  0  0  0  0
  1 22  1  0  0  0  0
  1 24  1  0  0  0  0
  1 27  1  0  0  0  0
  1 26  1  0  0  0  0
  1 17  1  0  0  0  0
  1 23  1  0  0  0  0
M  END
$$$$
