compound_75
  GFN2-xTB geometry (ORCA XTB2, DDCOSMO(water))

 43 53  0  0  0  0  0  0  0  0999 V2000
   -0.2262   -0.3877   -0.9946 C   0  0  0  0  0  0  0  0  0  0  0  0
   -1.2586   -0.8289   -0.1309 C   0  0  0  0  0  0  0  0  0  0  0  0
   -0.9839   -2.0057    0.6120 C   0  0  0  0  0  0  0  0  0  0  0  0
    0.2514   -2.6463    0.4501 C   0  0  0  0  0  0  0  0  0  0  0  0
    1.2927   -2.1862   -0.3924 C   0  0  0  0  0  0  0  0  0  0  0  0
    1.0079   -1.0346   -1.1208 C   0  0  0  0  0  0  0  0  0  0  0  0
    2.2943   -5.8047    1.9800 H   0  0  0  0  0  0  0  0  0  0  0  0
    4.5930   -6.0051    1.0766 H   0  0  0  0  0  0  0  0  0  0  0  0
   -3.6742   -2.4251    2.4100 H   0  0  0  0  0  0  0  0  0  0  0  0
    5.4388   -4.4114   -0.5745 H   0  0  0  0  0  0  0  0  0  0  0  0
   -2.5110   -0.2272    0.0973 C   0  0  0  0  0  0  0  0  0  0  0  0
   -3.3595   -0.8050    1.0147 C   0  0  0  0  0  0  0  0  0  0  0  0
   -2.9928   -1.9697    1.7042 C   0  0  0  0  0  0  0  0  0  0  0  0
   -1.8258   -2.5541    1.5140 N   0  0  0  0  0  0  0  0  0  0  0  0
   -2.7803    0.6661   -0.4446 H   0  0  0  0  0  0  0  0  0  0  0  0
   -4.3243   -0.3683    1.2134 H   0  0  0  0  0  0  0  0  0  0  0  0
    2.3665   -3.1184   -0.1588 C   0  0  0  0  0  0  0  0  0  0  0  0
    1.8757   -4.0479    0.8117 C   0  0  0  0  0  0  0  0  0  0  0  0
    0.5843   -3.7372    1.1671 N   0  0  0  0  0  0  0  0  0  0  0  0
    4.0219   -2.5496   -1.3938 H   0  0  0  0  0  0  0  0  0  0  0  0
    2.6715   -5.0955    1.2598 C   0  0  0  0  0  0  0  0  0  0  0  0
    3.9529   -5.2030    0.7446 C   0  0  0  0  0  0  0  0  0  0  0  0
    4.4353   -4.2975   -0.1954 C   0  0  0  0  0  0  0  0  0  0  0  0
    3.6497   -3.2487   -0.6602 C   0  0  0  0  0  0  0  0  0  0  0  0
    1.8284   -0.2686   -2.0925 C   0  0  0  0  0  0  0  0  0  0  0  0
    1.0353    0.7865   -2.4853 N   0  0  0  0  0  0  0  0  0  0  0  0
   -0.2103    0.7934   -1.8737 C   0  0  0  0  0  0  0  0  0  0  0  0
   -1.0686    1.6259   -2.0623 O   0  0  0  0  0  0  0  0  0  0  0  0
    2.9521   -0.4886   -2.4819 O   0  0  0  0  0  0  0  0  0  0  0  0
    1.3280    1.4867   -3.1518 H   0  0  0  0  0  0  0  0  0  0  0  0
   -0.9582   -4.2918    2.3732 Ru  0  0  0  0  0  0  0  0  0  0  0  0
   -1.7850   -5.2552    1.0051 C   0  0  0  0  0  0  0  0  0  0  0  0
   -2.2876   -5.8285    0.1582 O   0  0  0  0  0  0  0  0  0  0  0  0
    0.3096   -4.3864    4.2082 C   0  0  0  0  0  0  0  0  0  0  0  0
   -0.7787   -3.5101    4.4344 C   0  0  0  0  0  0  0  0  0  0  0  0
   -1.9865   -4.2753    4.3503 C   0  0  0  0  0  0  0  0  0  0  0  0
   -1.6328   -5.6164    4.0674 C   0  0  0  0  0  0  0  0  0  0  0  0
   -0.2082   -5.6853    3.9497 C   0  0  0  0  0  0  0  0  0  0  0  0
   -0.7063   -2.4920    4.7954 H   0  0  0  0  0  0  0  0  0  0  0  0
   -2.3051   -6.4647    4.0653 H   0  0  0  0  0  0  0  0  0  0  0  0
    0.3688   -6.5967    3.8801 H   0  0  0  0  0  0  0  0  0  0  0  0
    1.3565   -4.1377    4.3186 H   0  0  0  0  0  0  0  0  0  0  0  0
   -2.9713   -3.9306    4.6329 H   0  0  0  0  0  0  0  0  0  0  0  0
  2  3  1  0  0  0  0
  5 17  1  0  0  0  0
  1 27  1  0  0  0  0
  6 25  1  0  0  0  0
 11 12  4  0  0  0  0
 13 14  4  0  0  0  0
 17 24  4  0  0  0  0
  4 19  1  0  0  0  0
 21 22  4  0  0  0  0
 18 21  4  0  0  0  0
 23 24  4  0  0  0  0
 22 23  4  0  0  0  0
  5  6  4  0  0  0  0
  1  6  4  0  0  0  0
  3  4  4  0  0  0  0
 12 13  4  0  0  0  0
  2 11  4  0  0  0  0
 18 19  1  0  0  0  0
  3 14  4  0  0  0  0
 25 26  1  0  0  0  0
 34 35  4  0  0  0  0
 36 37  4  0  0  0  0
  4  5  4  0  0  0  0
  1  2  4  0  0  0  0
 34 38  4  0  0  0  0
 26 27  1  0  0  0  0
 17 18  4  0  0  0  0
 37 38  4  0  0  0  0
 35 36  4  0  0  0  0
 12 16  1  0  0  0  0
  8 22  1  0  0  0  0
 10 23  1  0  0  0  0
  7 21  1  0  0  0  0
 11 15  1  0  0  0  0
 20 24  1  0  0  0  0
 26 30  1  0  0  0  0
 38 41  1  0  0  0  0
 36 43  1  0  0  0  0
  9 13  1  0  0  0  0
 34 42  1  0  0  0  0
 37 40  1  0  0  0  0
 35 39  1  0  0  0  0
 32 33  2  0  0  0  0
 25 29  2  0  0  0  0
 27 28  2  0  0  0  0
 31 19  1  0  0  0  0
 31 32  1  0  0  0  0
 31 34  1  0  0  0  0
 31 35  1  0  0  0  0
 31 36  1  0  0  0  0
 31 37  1  0  0  0  0
 31 38  1  0  0  0  0
 31 14  1  0  0  0  0
M  END
$$$$
