compound_85
  GFN2-xTB geometry (ORCA XTB2, DDCOSMO(water))

 60 65  0  0  0  0  0  0  0  0999 V2000
   -0.8164   -1.0592    1.5253 Ru  0  0  0  0  0  0  0  0  0  0  0  0
    0.2814   -0.7152   -0.4913 C   0  0  0  0  0  0  0  0  0  0  0  0
   -1.0907   -0.4428   -0.6943 C   0  0  0  0  0  0  0  0  0  0  0  0
   -1.7849    0.5201    0.0754 C   0  0  0  0  0  0  0  0  0  0  0  0
   -1.0700    1.2175    1.0761 C   0  0  0  0  0  0  0  0  0  0  0  0
    0.3011    0.9870    1.3073 C   0  0  0  0  0  0  0  0  0  0  0  0
    0.9504   -0.0085    0.5417 C   0  0  0  0  0  0  0  0  0  0  0  0
   -1.6177   -0.9230   -1.5087 H   0  0  0  0  0  0  0  0  0  0  0  0
    1.0660   -1.6812   -1.3522 C   0  0  0  0  0  0  0  0  0  0  0  0
   -1.5633    2.0000    1.6404 H   0  0  0  0  0  0  0  0  0  0  0  0
   -3.2363    0.7969   -0.2525 C   0  0  0  0  0  0  0  0  0  0  0  0
   -2.0972   -0.8632    3.5538 Cl  0  0  0  0  0  0  0  0  0  0  0  0
    0.3700   -1.8865    3.6973 H   0  0  0  0  0  0  0  0  0  0  0  0
   -3.1503   -5.7148    1.7914 C   0  0  0  0  0  0  0  0  0  0  0  0
   -2.0307   -5.0532    2.2965 C   0  0  0  0  0  0  0  0  0  0  0  0
   -1.4766   -5.9834    3.2533 C   0  0  0  0  0  0  0  0  0  0  0  0
   -2.1975   -7.0884    3.3022 N   0  0  0  0  0  0  0  0  0  0  0  0
   -3.1973   -6.8878    2.4095 N   0  0  0  0  0  0  0  0  0  0  0  0
   -0.3568   -5.6957    3.9596 N   0  0  0  0  0  0  0  0  0  0  0  0
    0.1766   -4.5503    3.7612 C   0  0  0  0  0  0  0  0  0  0  0  0
    1.0688   -4.3022    4.3177 H   0  0  0  0  0  0  0  0  0  0  0  0
   -0.2840   -3.6008    2.8898 N   0  0  0  0  0  0  0  0  0  0  0  0
   -1.4095   -3.7995    2.1182 C   0  0  0  0  0  0  0  0  0  0  0  0
    1.0604    1.8136    2.3196 C   0  0  0  0  0  0  0  0  0  0  0  0
   -1.7312   -2.8396    1.2977 N   0  0  0  0  0  0  0  0  0  0  0  0
    1.3260   -2.4791    2.4776 H   0  0  0  0  0  0  0  0  0  0  0  0
   -4.1822   -7.9120    2.2136 C   0  0  0  0  0  0  0  0  0  0  0  0
    2.0154   -0.1632    0.6718 H   0  0  0  0  0  0  0  0  0  0  0  0
   -4.6674   -8.1445    3.1613 H   0  0  0  0  0  0  0  0  0  0  0  0
   -3.7060   -8.8185    1.8399 H   0  0  0  0  0  0  0  0  0  0  0  0
    0.3466   -2.3446    2.7733 N   0  0  0  0  0  0  0  0  0  0  0  0
   -4.9162   -7.5549    1.4961 H   0  0  0  0  0  0  0  0  0  0  0  0
   -2.5607   -3.0173    0.7365 H   0  0  0  0  0  0  0  0  0  0  0  0
   -3.8036    2.0293    0.4479 C   0  0  0  0  0  0  0  0  0  0  0  0
    2.1993   -2.5935    0.2624 H   0  0  0  0  0  0  0  0  0  0  0  0
    1.4935   -2.8884   -0.5074 C   0  0  0  0  0  0  0  0  0  0  0  0
    1.9772   -3.6273   -1.1409 H   0  0  0  0  0  0  0  0  0  0  0  0
    0.6140   -3.3478   -0.0542 H   0  0  0  0  0  0  0  0  0  0  0  0
    1.9674   -1.1555   -1.6878 H   0  0  0  0  0  0  0  0  0  0  0  0
   -3.2120    2.9159    0.2320 H   0  0  0  0  0  0  0  0  0  0  0  0
   -3.8486    1.8818    1.5263 H   0  0  0  0  0  0  0  0  0  0  0  0
   -4.8172    2.2096    0.0983 H   0  0  0  0  0  0  0  0  0  0  0  0
    0.9652   -2.7581   -3.2074 H   0  0  0  0  0  0  0  0  0  0  0  0
   -0.0352   -1.3150   -3.1907 H   0  0  0  0  0  0  0  0  0  0  0  0
   -0.5460   -2.7710   -2.3127 H   0  0  0  0  0  0  0  0  0  0  0  0
    1.5020    0.9368    3.4953 C   0  0  0  0  0  0  0  0  0  0  0  0
   -5.1344   -0.2274   -0.0838 H   0  0  0  0  0  0  0  0  0  0  0  0
    2.2605    2.5064    1.6669 C   0  0  0  0  0  0  0  0  0  0  0  0
    1.9490    3.0714    0.7913 H   0  0  0  0  0  0  0  0  0  0  0  0
    3.0188    1.7892    1.3689 H   0  0  0  0  0  0  0  0  0  0  0  0
    2.7101    3.1984    2.3745 H   0  0  0  0  0  0  0  0  0  0  0  0
   -4.0822   -0.4370    0.0900 C   0  0  0  0  0  0  0  0  0  0  0  0
   -3.9599   -0.6953    1.1441 H   0  0  0  0  0  0  0  0  0  0  0  0
   -3.8007   -1.2908   -0.5188 H   0  0  0  0  0  0  0  0  0  0  0  0
    0.6284    0.4767    3.9588 H   0  0  0  0  0  0  0  0  0  0  0  0
    2.1948    0.1699    3.1625 H   0  0  0  0  0  0  0  0  0  0  0  0
    1.9988    1.5478    4.2447 H   0  0  0  0  0  0  0  0  0  0  0  0
    0.3848    2.5862    2.7030 H   0  0  0  0  0  0  0  0  0  0  0  0
    0.3056   -2.1541   -2.5890 C   0  0  0  0  0  0  0  0  0  0  0  0
   -3.2993    0.9625   -1.3346 H   0  0  0  0  0  0  0  0  0  0  0  0
 15 16  1  0  0  0  0
 14 18  1  0  0  0  0
 23 25  2  0  0  0  0
 17 18  1  0  0  0  0
 16 19  1  0  0  0  0
 14 15  2  0  0  0  0
  6 24  1  0  0  0  0
  2  9  1  0  0  0  0
  4 11  1  0  0  0  0
 20 22  1  0  0  0  0
  5  6  4  0  0  0  0
 15 23  1  0  0  0  0
  2  3  4  0  0  0  0
  6  7  4  0  0  0  0
  4  5  4  0  0  0  0
  3  4  4  0  0  0  0
 11 34  1  0  0  0  0
  9 59  1  0  0  0  0
 22 23  1  0  0  0  0
  2  7  4  0  0  0  0
 24 48  1  0  0  0  0
 24 46  1  0  0  0  0
  9 36  1  0  0  0  0
 11 52  1  0  0  0  0
 22 31  1  0  0  0  0
 20 21  1  0  0  0  0
  3  8  1  0  0  0  0
  5 10  1  0  0  0  0
  7 28  1  0  0  0  0
 35 36  1  0  0  0  0
 48 50  1  0  0  0  0
 52 54  1  0  0  0  0
 46 56  1  0  0  0  0
 27 32  1  0  0  0  0
 47 52  1  0  0  0  0
 36 37  1  0  0  0  0
 48 51  1  0  0  0  0
 46 57  1  0  0  0  0
 45 59  1  0  0  0  0
 34 42  1  0  0  0  0
 44 59  1  0  0  0  0
 43 59  1  0  0  0  0
 34 40  1  0  0  0  0
 48 49  1  0  0  0  0
 25 33  1  0  0  0  0
 34 41  1  0  0  0  0
 27 29  1  0  0  0  0
 27 30  1  0  0  0  0
 46 55  1  0  0  0  0
 36 38  1  0  0  0  0
 52 53  1  0  0  0  0
 24 58  1  0  0  0  0
  9 39  1  0  0  0  0
 11 60  1  0  0  0  0
 13 31  1  0  0  0  0
 26 31  1  0  0  0  0
 18 27  1  0  0  0  0
 19 20  2  0  0  0  0
 16 17  2  0  0  0  0
  1  3  1  0  0  0  0
  1  5  1  0  0  0  0
  1  7  1  0  0  0  0
  1 25  1  0  0  0  0
  1 31  1  0  0  0  0
  1 12  1  0  0  0  0
M  END
$$$$
