compound_84
  GFN2-xTB geometry (ORCA XTB2, DDCOSMO(water))

 33 41  0  0  0  0  0  0  0  0999 V2000
   -1.0880   -0.8248    0.7754 Ru  0  0  0  0  0  0  0  0  0  0  0  0
   -0.0793   -0.1549   -1.1818 C   0  0  0  0  0  0  0  0  0  0  0  0
   -1.3948    0.3286   -1.1972 C   0  0  0  0  0  0  0  0  0  0  0  0
   -1.8670    1.1538   -0.1425 C   0  0  0  0  0  0  0  0  0  0  0  0
   -1.0289    1.4604    0.9335 C   0  0  0  0  0  0  0  0  0  0  0  0
    0.3000    0.9495    0.9668 C   0  0  0  0  0  0  0  0  0  0  0  0
    0.7770    0.1618   -0.0937 C   0  0  0  0  0  0  0  0  0  0  0  0
   -2.0317    0.1403   -2.0545 H   0  0  0  0  0  0  0  0  0  0  0  0
   -1.7459   -2.5355    5.0532 H   0  0  0  0  0  0  0  0  0  0  0  0
   -1.3664    2.1405    1.7074 H   0  0  0  0  0  0  0  0  0  0  0  0
    0.6965   -8.2940    1.1431 H   0  0  0  0  0  0  0  0  0  0  0  0
   -3.2027   -1.9440    0.6858 Cl  0  0  0  0  0  0  0  0  0  0  0  0
   -2.2898   -1.0230    3.0694 H   0  0  0  0  0  0  0  0  0  0  0  0
    0.0807   -5.8377    1.6087 C   0  0  0  0  0  0  0  0  0  0  0  0
   -0.3623   -4.7124    2.2938 C   0  0  0  0  0  0  0  0  0  0  0  0
   -0.7142   -5.2307    3.5983 C   0  0  0  0  0  0  0  0  0  0  0  0
   -0.4902   -6.5306    3.6624 N   0  0  0  0  0  0  0  0  0  0  0  0
   -0.0126   -6.8633    2.4427 N   0  0  0  0  0  0  0  0  0  0  0  0
   -1.1977   -4.4265    4.5718 N   0  0  0  0  0  0  0  0  0  0  0  0
   -1.3555   -3.1900    4.2866 C   0  0  0  0  0  0  0  0  0  0  0  0
    0.0679   -3.2414    0.1628 H   0  0  0  0  0  0  0  0  0  0  0  0
   -1.0666   -2.6153    3.0783 N   0  0  0  0  0  0  0  0  0  0  0  0
   -0.5629   -3.3419    2.0193 C   0  0  0  0  0  0  0  0  0  0  0  0
    1.8132   -0.1532   -0.1166 H   0  0  0  0  0  0  0  0  0  0  0  0
   -0.3038   -2.6820    0.9268 N   0  0  0  0  0  0  0  0  0  0  0  0
   -0.7082   -0.6761    3.4600 H   0  0  0  0  0  0  0  0  0  0  0  0
    0.3312   -8.2274    2.1644 C   0  0  0  0  0  0  0  0  0  0  0  0
    0.3045   -0.7093   -2.0305 H   0  0  0  0  0  0  0  0  0  0  0  0
   -0.5456   -8.8626    2.2893 H   0  0  0  0  0  0  0  0  0  0  0  0
    1.1000   -8.5633    2.8598 H   0  0  0  0  0  0  0  0  0  0  0  0
   -1.3080   -1.2459    2.8409 N   0  0  0  0  0  0  0  0  0  0  0  0
   -2.8581    1.5871   -0.2072 H   0  0  0  0  0  0  0  0  0  0  0  0
    0.9712    1.2457    1.7652 H   0  0  0  0  0  0  0  0  0  0  0  0
 15 16  1  0  0  0  0
 14 18  1  0  0  0  0
 23 25  2  0  0  0  0
 17 18  1  0  0  0  0
 16 19  1  0  0  0  0
 14 15  2  0  0  0  0
  4  5  4  0  0  0  0
  2  3  4  0  0  0  0
  6  7  4  0  0  0  0
 20 22  1  0  0  0  0
 15 23  1  0  0  0  0
 22 23  1  0  0  0  0
  3  4  4  0  0  0  0
  2  7  4  0  0  0  0
  5  6  4  0  0  0  0
 22 31  1  0  0  0  0
  9 20  1  0  0  0  0
  7 24  1  0  0  0  0
  4 32  1  0  0  0  0
  2 28  1  0  0  0  0
  5 10  1  0  0  0  0
  6 33  1  0  0  0  0
  3  8  1  0  0  0  0
 11 27  1  0  0  0  0
 21 25  1  0  0  0  0
 27 30  1  0  0  0  0
 27 29  1  0  0  0  0
 18 27  1  0  0  0  0
 13 31  1  0  0  0  0
 26 31  1  0  0  0  0
 19 20  2  0  0  0  0
 16 17  2  0  0  0  0
  1  2  1  0  0  0  0
  1  3  1  0  0  0  0
  1  4  1  0  0  0  0
  1  5  1  0  0  0  0
  1  6  1  0  0  0  0
  1  7  1  0  0  0  0
  1 12  1  0  0  0  0
  1 25  1  0  0  0  0
  1 31  1  0  0  0  0
M  END
$$$$
