compound_16
  GFN2-xTB geometry (ORCA XTB2, DDCOSMO(water))

 62 70  0  0  0  0  0  0  0  0999 V2000
   -1.8718   -0.5830   -3.3501 C   0  0  0  0  0  0  0  0  0  0  0  0
   -2.0430   -0.5620   -1.9408 C   0  0  0  0  0  0  0  0  0  0  0  0
   -0.8866   -0.8418   -1.1620 C   0  0  0  0  0  0  0  0  0  0  0  0
    0.3359   -1.0980   -1.8071 C   0  0  0  0  0  0  0  0  0  0  0  0
    0.4945   -1.1227   -3.2221 C   0  0  0  0  0  0  0  0  0  0  0  0
   -0.6459   -0.8569   -3.9678 C   0  0  0  0  0  0  0  0  0  0  0  0
    4.1981   -1.9854   -0.9467 H   0  0  0  0  0  0  0  0  0  0  0  0
    5.5996   -2.3040   -2.9537 H   0  0  0  0  0  0  0  0  0  0  0  0
   -1.9717   -0.6132    1.9063 H   0  0  0  0  0  0  0  0  0  0  0  0
    2.1486    5.6290    0.6869 H   0  0  0  0  0  0  0  0  0  0  0  0
   -3.2249   -0.2934   -1.2479 C   0  0  0  0  0  0  0  0  0  0  0  0
   -3.2134   -0.3042    0.1446 C   0  0  0  0  0  0  0  0  0  0  0  0
   -2.0125   -0.5977    0.8265 C   0  0  0  0  0  0  0  0  0  0  0  0
   -0.8882   -0.8697    0.1842 N   0  0  0  0  0  0  0  0  0  0  0  0
   -4.1368   -0.0754   -1.7803 H   0  0  0  0  0  0  0  0  0  0  0  0
   -4.3684   -0.0304    0.7642 O   0  0  0  0  0  0  0  0  0  0  0  0
    1.8802   -1.4377   -3.4127 C   0  0  0  0  0  0  0  0  0  0  0  0
    2.4316   -1.5718   -2.0993 C   0  0  0  0  0  0  0  0  0  0  0  0
    1.4706   -1.3561   -1.1408 N   0  0  0  0  0  0  0  0  0  0  0  0
    2.2641   -1.5194   -5.5282 H   0  0  0  0  0  0  0  0  0  0  0  0
    3.7767   -1.8856   -1.9376 C   0  0  0  0  0  0  0  0  0  0  0  0
    4.5533   -2.0599   -3.0634 C   0  0  0  0  0  0  0  0  0  0  0  0
    4.0153   -1.9313   -4.3511 C   0  0  0  0  0  0  0  0  0  0  0  0
    2.6714   -1.6169   -4.5338 C   0  0  0  0  0  0  0  0  0  0  0  0
   -0.8526   -0.7952   -5.4351 C   0  0  0  0  0  0  0  0  0  0  0  0
   -2.1805   -0.4883   -5.6018 N   0  0  0  0  0  0  0  0  0  0  0  0
   -2.8630   -0.3448   -4.3934 C   0  0  0  0  0  0  0  0  0  0  0  0
   -4.0436   -0.0728   -4.3118 O   0  0  0  0  0  0  0  0  0  0  0  0
   -0.0558   -0.9703   -6.3318 O   0  0  0  0  0  0  0  0  0  0  0  0
    1.2718   -4.1379    1.2410 O   0  0  0  0  0  0  0  0  0  0  0  0
    1.0264   -1.1828    0.9021 Ru  0  0  0  0  0  0  0  0  0  0  0  0
    1.0229   -3.0288    1.0920 C   0  0  0  0  0  0  0  0  0  0  0  0
   -2.6219   -0.3779   -6.5031 H   0  0  0  0  0  0  0  0  0  0  0  0
    0.5932   -0.7110    2.8276 N   0  0  0  0  0  0  0  0  0  0  0  0
   -5.4545    0.2125    2.4269 H   0  0  0  0  0  0  0  0  0  0  0  0
    1.3601   -2.5783    6.9188 H   0  0  0  0  0  0  0  0  0  0  0  0
    1.7846   -0.8640    5.2068 H   0  0  0  0  0  0  0  0  0  0  0  0
    0.7635    0.5292    3.1390 C   0  0  0  0  0  0  0  0  0  0  0  0
   -3.7610    0.7335    2.6017 H   0  0  0  0  0  0  0  0  0  0  0  0
    5.6911   -2.3219   -5.1886 H   0  0  0  0  0  0  0  0  0  0  0  0
    1.2405    0.8073    0.8476 N   0  0  0  0  0  0  0  0  0  0  0  0
    0.6552    0.8886    4.1575 H   0  0  0  0  0  0  0  0  0  0  0  0
   -4.4220   -0.0285    2.1848 C   0  0  0  0  0  0  0  0  0  0  0  0
   -4.1705   -1.0100    2.5903 H   0  0  0  0  0  0  0  0  0  0  0  0
    3.3686   -1.2929    1.6517 Cl  0  0  0  0  0  0  0  0  0  0  0  0
    0.3550   -1.6678    3.8237 C   0  0  0  0  0  0  0  0  0  0  0  0
   -0.5608   -2.6933    3.5818 C   0  0  0  0  0  0  0  0  0  0  0  0
   -0.7901   -3.6554    4.5459 C   0  0  0  0  0  0  0  0  0  0  0  0
   -0.1038   -3.6157    5.7501 C   0  0  0  0  0  0  0  0  0  0  0  0
    0.8129   -2.6052    5.9897 C   0  0  0  0  0  0  0  0  0  0  0  0
    1.0406   -1.6279    5.0383 C   0  0  0  0  0  0  0  0  0  0  0  0
   -1.0904   -2.7224    2.6392 H   0  0  0  0  0  0  0  0  0  0  0  0
   -1.5023   -4.4424    4.3547 H   0  0  0  0  0  0  0  0  0  0  0  0
   -0.2755   -4.3757    6.4956 H   0  0  0  0  0  0  0  0  0  0  0  0
    1.1066    1.4468    2.0912 C   0  0  0  0  0  0  0  0  0  0  0  0
    1.3098    2.7910    2.2293 C   0  0  0  0  0  0  0  0  0  0  0  0
    1.6753    3.7559    1.2841 C   0  0  0  0  0  0  0  0  0  0  0  0
    1.7639    2.9684    0.1594 C   0  0  0  0  0  0  0  0  0  0  0  0
    1.5830    1.7003   -0.0411 C   0  0  0  0  0  0  0  0  0  0  0  0
    1.8531    5.0550    1.4563 N   0  0  0  0  0  0  0  0  0  0  0  0
    1.7745    5.4424    2.3801 H   0  0  0  0  0  0  0  0  0  0  0  0
    4.7818   -2.1091   -5.4511 O   0  0  0  0  0  0  0  0  0  0  0  0
  2  3  1  0  0  0  0
  5 17  1  0  0  0  0
 12 16  1  0  0  0  0
 23 62  1  0  0  0  0
 34 38  2  0  0  0  0
  1 27  1  0  0  0  0
 57 60  1  0  0  0  0
 55 56  2  0  0  0  0
  6 25  1  0  0  0  0
 57 58  2  0  0  0  0
  4 19  1  0  0  0  0
 21 22  4  0  0  0  0
 47 48  4  0  0  0  0
 50 51  4  0  0  0  0
 17 24  4  0  0  0  0
 49 50  4  0  0  0  0
 13 14  4  0  0  0  0
 48 49  4  0  0  0  0
  5  6  4  0  0  0  0
 18 21  4  0  0  0  0
 23 24  4  0  0  0  0
 11 12  4  0  0  0  0
 46 51  4  0  0  0  0
 46 47  4  0  0  0  0
  2 11  4  0  0  0  0
 56 57  1  0  0  0  0
  1  6  4  0  0  0  0
 22 23  4  0  0  0  0
  3  4  4  0  0  0  0
 25 26  1  0  0  0  0
  3 14  4  0  0  0  0
 18 19  1  0  0  0  0
 12 13  4  0  0  0  0
 16 43  1  0  0  0  0
  1  2  4  0  0  0  0
  4  5  4  0  0  0  0
 17 18  4  0  0  0  0
 26 27  1  0  0  0  0
 10 60  1  0  0  0  0
 60 61  1  0  0  0  0
 38 55  1  0  0  0  0
 11 15  1  0  0  0  0
 49 54  1  0  0  0  0
 48 53  1  0  0  0  0
 36 50  1  0  0  0  0
 20 24  1  0  0  0  0
 34 46  1  0  0  0  0
 37 51  1  0  0  0  0
  8 22  1  0  0  0  0
 26 33  1  0  0  0  0
  9 13  1  0  0  0  0
 40 62  1  0  0  0  0
  7 21  1  0  0  0  0
 47 52  1  0  0  0  0
 41 55  1  0  0  0  0
 38 42  1  0  0  0  0
 35 43  1  0  0  0  0
 43 44  1  0  0  0  0
 39 43  1  0  0  0  0
 30 32  2  0  0  0  0
 58 59  2  0  0  0  0
 25 29  2  0  0  0  0
 27 28  2  0  0  0  0
 41 59  2  0  0  0  0
 31 14  1  0  0  0  0
 31 19  1  0  0  0  0
 31 32  1  0  0  0  0
 31 34  1  0  0  0  0
 31 41  1  0  0  0  0
 31 45  1  0  0  0  0
M  END
$$$$
