compound_102
  GFN2-xTB geometry (ORCA XTB2, DDCOSMO(water))

 77 86  0  0  0  0  0  0  0  0999 V2000
    9.2738   -5.1459    0.0336 Ru  0  0  0  0  0  0  0  0  0  0  0  0
   10.8025   -6.3896    1.2613 C   0  0  0  0  0  0  0  0  0  0  0  0
   10.7098   -6.9769   -0.0010 C   0  0  0  0  0  0  0  0  0  0  0  0
    9.4709   -7.5002   -0.4891 C   0  0  0  0  0  0  0  0  0  0  0  0
    8.3296   -7.3295    0.2943 C   0  0  0  0  0  0  0  0  0  0  0  0
    8.3879   -6.5961    1.5094 C   0  0  0  0  0  0  0  0  0  0  0  0
    9.6291   -6.1560    2.0342 C   0  0  0  0  0  0  0  0  0  0  0  0
    6.1086   -0.4646    0.2794 H   0  0  0  0  0  0  0  0  0  0  0  0
    4.3383   -6.5950   -3.3413 N   0  0  0  0  0  0  0  0  0  0  0  0
    2.8884   -6.9732    0.3571 C   0  0  0  0  0  0  0  0  0  0  0  0
    7.4971   -6.5257    2.1200 H   0  0  0  0  0  0  0  0  0  0  0  0
    4.6358   -1.1330   -0.4276 H   0  0  0  0  0  0  0  0  0  0  0  0
    3.1381   -6.0609   -3.6853 C   0  0  0  0  0  0  0  0  0  0  0  0
    4.2640   -1.0324    1.9644 H   0  0  0  0  0  0  0  0  0  0  0  0
    2.9459   -4.8583   -3.2356 N   0  0  0  0  0  0  0  0  0  0  0  0
    2.4213   -6.5925   -4.2802 H   0  0  0  0  0  0  0  0  0  0  0  0
    1.8955   -6.9154   -0.5793 F   0  0  0  0  0  0  0  0  0  0  0  0
    2.2463   -8.0568    1.7491 P   0  0  0  0  0  0  0  0  0  0  0  0
    4.6664   -7.5221   -3.5526 H   0  0  0  0  0  0  0  0  0  0  0  0
    1.7275   -9.3372    1.2525 O   0  0  0  0  0  0  0  0  0  0  0  0
    1.2224   -7.1320    2.5271 O   0  0  0  0  0  0  0  0  0  0  0  0
    0.3042   -7.2470    2.2663 H   0  0  0  0  0  0  0  0  0  0  0  0
    3.4529   -8.2177    2.7378 O   0  0  0  0  0  0  0  0  0  0  0  0
    4.3883   -3.3919   -1.8293 C   0  0  0  0  0  0  0  0  0  0  0  0
    3.8931   -7.6904   -0.2446 F   0  0  0  0  0  0  0  0  0  0  0  0
   10.1559   -4.3633   -2.0813 Cl  0  0  0  0  0  0  0  0  0  0  0  0
    9.5614   -3.3138    0.7663 N   0  0  0  0  0  0  0  0  0  0  0  0
    8.5429   -2.4150    0.7154 C   0  0  0  0  0  0  0  0  0  0  0  0
   10.7231   -2.9476    1.2961 C   0  0  0  0  0  0  0  0  0  0  0  0
    8.6849   -1.1409    1.2605 C   0  0  0  0  0  0  0  0  0  0  0  0
   10.9332   -1.6931    1.8407 C   0  0  0  0  0  0  0  0  0  0  0  0
    9.8899   -0.7786    1.8346 C   0  0  0  0  0  0  0  0  0  0  0  0
   10.0156    0.2020    2.2630 H   0  0  0  0  0  0  0  0  0  0  0  0
   11.5160   -3.6837    1.2799 H   0  0  0  0  0  0  0  0  0  0  0  0
   11.8929   -1.4481    2.2630 H   0  0  0  0  0  0  0  0  0  0  0  0
    7.8688   -0.4418    1.2347 H   0  0  0  0  0  0  0  0  0  0  0  0
    7.4064   -2.9584    0.0011 C   0  0  0  0  0  0  0  0  0  0  0  0
    7.5900   -4.1926   -0.4774 N   0  0  0  0  0  0  0  0  0  0  0  0
    6.5023   -4.5078   -1.2363 C   0  0  0  0  0  0  0  0  0  0  0  0
    5.6099   -3.3975   -1.1782 C   0  0  0  0  0  0  0  0  0  0  0  0
    6.2150   -2.4409   -0.3894 N   0  0  0  0  0  0  0  0  0  0  0  0
    6.2102   -5.6629   -1.9518 C   0  0  0  0  0  0  0  0  0  0  0  0
    4.9814   -5.6595   -2.5760 C   0  0  0  0  0  0  0  0  0  0  0  0
    4.0800   -4.5505   -2.5216 C   0  0  0  0  0  0  0  0  0  0  0  0
    3.6331   -7.4479    3.2978 H   0  0  0  0  0  0  0  0  0  0  0  0
    5.4829   -1.3525    0.2203 C   0  0  0  0  0  0  0  0  0  0  0  0
    4.9811   -1.7750    1.6192 C   0  0  0  0  0  0  0  0  0  0  0  0
    4.3443   -3.1289    1.4950 C   0  0  0  0  0  0  0  0  0  0  0  0
    3.0547   -3.2634    0.9940 C   0  0  0  0  0  0  0  0  0  0  0  0
    2.5562   -4.5048    0.6435 C   0  0  0  0  0  0  0  0  0  0  0  0
    3.3611   -5.6267    0.7847 C   0  0  0  0  0  0  0  0  0  0  0  0
    4.6191   -5.5163    1.3644 C   0  0  0  0  0  0  0  0  0  0  0  0
    5.1016   -4.2734    1.7224 C   0  0  0  0  0  0  0  0  0  0  0  0
    2.4397   -2.3898    0.8454 H   0  0  0  0  0  0  0  0  0  0  0  0
    1.5682   -4.6025    0.2202 H   0  0  0  0  0  0  0  0  0  0  0  0
    5.8185   -1.8174    2.3133 H   0  0  0  0  0  0  0  0  0  0  0  0
    5.2170   -6.4045    1.4923 H   0  0  0  0  0  0  0  0  0  0  0  0
    6.0867   -4.1899    2.1538 H   0  0  0  0  0  0  0  0  0  0  0  0
   11.7762   -6.1515    1.6739 H   0  0  0  0  0  0  0  0  0  0  0  0
    6.9039   -6.4824   -2.0302 H   0  0  0  0  0  0  0  0  0  0  0  0
    3.7035   -2.5632   -1.8182 H   0  0  0  0  0  0  0  0  0  0  0  0
    9.4535   -8.2935   -1.7603 C   0  0  0  0  0  0  0  0  0  0  0  0
    9.8108   -7.6883   -2.5951 H   0  0  0  0  0  0  0  0  0  0  0  0
    8.4527   -8.6501   -1.9895 H   0  0  0  0  0  0  0  0  0  0  0  0
   10.1179   -9.1525   -1.6701 H   0  0  0  0  0  0  0  0  0  0  0  0
    9.7441   -5.6079    3.4367 C   0  0  0  0  0  0  0  0  0  0  0  0
    8.5652   -4.7173    3.8286 C   0  0  0  0  0  0  0  0  0  0  0  0
    9.8695   -6.7985    4.3976 C   0  0  0  0  0  0  0  0  0  0  0  0
    9.9829   -6.4379    5.4162 H   0  0  0  0  0  0  0  0  0  0  0  0
   10.7352   -7.4086    4.1509 H   0  0  0  0  0  0  0  0  0  0  0  0
    8.9827   -7.4255    4.3488 H   0  0  0  0  0  0  0  0  0  0  0  0
    7.6710   -5.3065    4.0079 H   0  0  0  0  0  0  0  0  0  0  0  0
    8.3689   -3.9860    3.0471 H   0  0  0  0  0  0  0  0  0  0  0  0
    8.8039   -4.1871    4.7466 H   0  0  0  0  0  0  0  0  0  0  0  0
   10.6638   -5.0187    3.5026 H   0  0  0  0  0  0  0  0  0  0  0  0
    7.3934   -7.7864   -0.0052 H   0  0  0  0  0  0  0  0  0  0  0  0
   11.6101   -7.1627   -0.5794 H   0  0  0  0  0  0  0  0  0  0  0  0
 18 23  1  0  0  0  0
 18 21  1  0  0  0  0
 42 43  4  0  0  0  0
 52 53  4  0  0  0  0
 10 51  1  0  0  0  0
 10 17  1  0  0  0  0
 49 50  4  0  0  0  0
 30 32  1  0  0  0  0
 29 31  1  0  0  0  0
 24 40  4  0  0  0  0
 24 44  4  0  0  0  0
 31 32  2  0  0  0  0
 50 51  4  0  0  0  0
  4 62  1  0  0  0  0
 51 52  4  0  0  0  0
 39 42  4  0  0  0  0
 48 49  4  0  0  0  0
 10 25  1  0  0  0  0
 48 53  4  0  0  0  0
 47 48  1  0  0  0  0
 27 29  2  0  0  0  0
 28 30  2  0  0  0  0
 37 41  1  0  0  0  0
  4  5  4  0  0  0  0
  9 13  1  0  0  0  0
  2  3  4  0  0  0  0
 27 28  1  0  0  0  0
  7 66  1  0  0  0  0
 37 38  2  0  0  0  0
 38 39  1  0  0  0  0
  9 43  1  0  0  0  0
 15 44  1  0  0  0  0
 66 67  1  0  0  0  0
 40 41  1  0  0  0  0
  6  7  4  0  0  0  0
  5  6  4  0  0  0  0
 66 68  1  0  0  0  0
  2  7  4  0  0  0  0
 39 40  4  0  0  0  0
 21 22  1  0  0  0  0
 43 44  4  0  0  0  0
 13 16  1  0  0  0  0
  3  4  4  0  0  0  0
 46 47  1  0  0  0  0
 10 18  1  0  0  0  0
 30 36  1  0  0  0  0
 24 61  1  0  0  0  0
  9 19  1  0  0  0  0
 42 60  1  0  0  0  0
 31 35  1  0  0  0  0
 32 33  1  0  0  0  0
 52 57  1  0  0  0  0
 53 58  1  0  0  0  0
 49 54  1  0  0  0  0
 50 55  1  0  0  0  0
 23 45  1  0  0  0  0
 29 34  1  0  0  0  0
  6 11  1  0  0  0  0
  5 76  1  0  0  0  0
  2 59  1  0  0  0  0
 28 37  1  0  0  0  0
 67 72  1  0  0  0  0
  3 77  1  0  0  0  0
 68 69  1  0  0  0  0
 67 74  1  0  0  0  0
 62 64  1  0  0  0  0
 68 71  1  0  0  0  0
 68 70  1  0  0  0  0
  8 46  1  0  0  0  0
 67 73  1  0  0  0  0
 14 47  1  0  0  0  0
 47 56  1  0  0  0  0
 12 46  1  0  0  0  0
 62 65  1  0  0  0  0
 62 63  1  0  0  0  0
 66 75  1  0  0  0  0
 41 46  1  0  0  0  0
 18 20  2  0  0  0  0
 13 15  2  0  0  0  0
  1  4  1  0  0  0  0
  1  5  1  0  0  0  0
  1  6  1  0  0  0  0
  1  7  1  0  0  0  0
  1 26  1  0  0  0  0
  1 38  1  0  0  0  0
  1 27  1  0  0  0  0
M  END
$$$$
