compound_114
  GFN2-xTB geometry (ORCA XTB2, DDCOSMO(water))

 46 50  0  0  0  0  0  0  0  0999 V2000
    9.2054   -3.8187   -2.4433 Ru  0  0  0  0  0  0  0  0  0  0  0  0
   11.4861   -4.1632   -2.1304 C   0  0  0  0  0  0  0  0  0  0  0  0
   10.9664   -5.3287   -2.6965 C   0  0  0  0  0  0  0  0  0  0  0  0
    9.9213   -6.0640   -2.0544 C   0  0  0  0  0  0  0  0  0  0  0  0
    9.4129   -5.5619   -0.8490 C   0  0  0  0  0  0  0  0  0  0  0  0
    9.8809   -4.3370   -0.3119 C   0  0  0  0  0  0  0  0  0  0  0  0
   10.9360   -3.6286   -0.9265 C   0  0  0  0  0  0  0  0  0  0  0  0
    7.9648   -7.4545   -2.8038 C   0  0  0  0  0  0  0  0  0  0  0  0
    9.9611   -7.5498   -3.5689 H   0  0  0  0  0  0  0  0  0  0  0  0
    7.4262   -7.3831   -1.8623 H   0  0  0  0  0  0  0  0  0  0  0  0
    9.5015   -3.9976    0.6448 H   0  0  0  0  0  0  0  0  0  0  0  0
    7.6933   -8.3882   -3.2877 H   0  0  0  0  0  0  0  0  0  0  0  0
    9.9372   -8.5119   -1.6422 C   0  0  0  0  0  0  0  0  0  0  0  0
    9.5768   -1.5666   -3.1793 Cl  0  0  0  0  0  0  0  0  0  0  0  0
   11.0093   -8.4527   -1.4733 H   0  0  0  0  0  0  0  0  0  0  0  0
   11.5993   -1.5998   -0.9893 H   0  0  0  0  0  0  0  0  0  0  0  0
    8.6627   -6.1243   -0.3081 H   0  0  0  0  0  0  0  0  0  0  0  0
   11.4254   -5.7410   -3.5902 H   0  0  0  0  0  0  0  0  0  0  0  0
   11.5558   -2.4298   -0.2843 C   0  0  0  0  0  0  0  0  0  0  0  0
   12.3455   -3.6768   -2.5806 H   0  0  0  0  0  0  0  0  0  0  0  0
    7.2411   -3.4561   -2.0150 N   0  0  0  0  0  0  0  0  0  0  0  0
    9.7049   -9.4791   -2.0781 H   0  0  0  0  0  0  0  0  0  0  0  0
    9.4809   -7.4016   -2.5952 C   0  0  0  0  0  0  0  0  0  0  0  0
    9.4214   -8.4280   -0.6903 H   0  0  0  0  0  0  0  0  0  0  0  0
   12.5753   -2.6697    0.0151 H   0  0  0  0  0  0  0  0  0  0  0  0
    8.3283   -4.2005   -4.6730 Cl  0  0  0  0  0  0  0  0  0  0  0  0
    7.6465   -6.6337   -3.4494 H   0  0  0  0  0  0  0  0  0  0  0  0
   10.9884   -2.1176    0.5871 H   0  0  0  0  0  0  0  0  0  0  0  0
    6.8197   -4.5198   -1.3472 N   0  0  0  0  0  0  0  0  0  0  0  0
    5.5477   -4.6725   -1.3373 C   0  0  0  0  0  0  0  0  0  0  0  0
    4.7057   -3.4418   -2.2061 S   0  0  0  0  0  0  0  0  0  0  0  0
    6.2565   -2.7403   -2.5494 C   0  0  0  0  0  0  0  0  0  0  0  0
    6.4892   -1.5873   -3.2055 N   0  0  0  0  0  0  0  0  0  0  0  0
    5.6755   -0.8066   -4.0216 C   0  0  0  0  0  0  0  0  0  0  0  0
    6.2067    0.0866   -4.6473 O   0  0  0  0  0  0  0  0  0  0  0  0
    4.2186   -1.1097   -4.0433 C   0  0  0  0  0  0  0  0  0  0  0  0
    4.0435   -2.1146   -4.4213 H   0  0  0  0  0  0  0  0  0  0  0  0
    3.7292   -0.3917   -4.6958 H   0  0  0  0  0  0  0  0  0  0  0  0
    3.8043   -1.0340   -3.0405 H   0  0  0  0  0  0  0  0  0  0  0  0
    7.4842   -1.3165   -3.2341 H   0  0  0  0  0  0  0  0  0  0  0  0
    4.7695   -6.1109   -0.6007 S   0  0  0  0  0  0  0  0  0  0  0  0
    3.8882   -6.6282   -1.6111 O   0  0  0  0  0  0  0  0  0  0  0  0
    5.8290   -6.9491   -0.1186 O   0  0  0  0  0  0  0  0  0  0  0  0
    3.9300   -5.4748    0.6368 N   0  0  0  0  0  0  0  0  0  0  0  0
    4.2373   -5.7719    1.5463 H   0  0  0  0  0  0  0  0  0  0  0  0
    2.9320   -5.4817    0.5111 H   0  0  0  0  0  0  0  0  0  0  0  0
 41 44  1  0  0  0  0
 21 29  1  0  0  0  0
 30 31  1  0  0  0  0
 31 32  1  0  0  0  0
 34 36  1  0  0  0  0
 32 33  1  0  0  0  0
  7 19  1  0  0  0  0
  2  3  4  0  0  0  0
  4 23  1  0  0  0  0
  4  5  4  0  0  0  0
  6  7  4  0  0  0  0
 30 41  1  0  0  0  0
  5  6  4  0  0  0  0
  8 23  1  0  0  0  0
 13 23  1  0  0  0  0
  2  7  4  0  0  0  0
 33 34  1  0  0  0  0
  3  4  4  0  0  0  0
 44 45  1  0  0  0  0
 44 46  1  0  0  0  0
  5 17  1  0  0  0  0
  6 11  1  0  0  0  0
  2 20  1  0  0  0  0
 19 28  1  0  0  0  0
 13 24  1  0  0  0  0
  3 18  1  0  0  0  0
 13 22  1  0  0  0  0
  8 12  1  0  0  0  0
 36 38  1  0  0  0  0
 13 15  1  0  0  0  0
  8 10  1  0  0  0  0
 36 39  1  0  0  0  0
 36 37  1  0  0  0  0
 19 25  1  0  0  0  0
 16 19  1  0  0  0  0
  8 27  1  0  0  0  0
  9 23  1  0  0  0  0
 33 40  1  0  0  0  0
 41 43  2  0  0  0  0
 41 42  2  0  0  0  0
 34 35  2  0  0  0  0
 29 30  2  0  0  0  0
 21 32  2  0  0  0  0
  1 26  1  0  0  0  0
  1  4  1  0  0  0  0
  1  5  1  0  0  0  0
  1  6  1  0  0  0  0
  1  7  1  0  0  0  0
  1 21  1  0  0  0  0
  1 14  1  0  0  0  0
M  END
$$$$
