compound_5
  GFN2-xTB geometry (ORCA XTB2, DDCOSMO(water))

 55 63  0  0  0  0  0  0  0  0999 V2000
   -1.0163   -0.8621   -2.0922 C   0  0  0  0  0  0  0  0  0  0  0  0
   -1.2646   -0.8105   -0.6965 C   0  0  0  0  0  0  0  0  0  0  0  0
   -0.2736   -1.3689    0.1511 C   0  0  0  0  0  0  0  0  0  0  0  0
    0.8899   -1.9203   -0.4212 C   0  0  0  0  0  0  0  0  0  0  0  0
    1.1326   -1.9662   -1.8291 C   0  0  0  0  0  0  0  0  0  0  0  0
    0.1480   -1.4265   -2.6403 C   0  0  0  0  0  0  0  0  0  0  0  0
    4.2868   -3.8572    0.6364 H   0  0  0  0  0  0  0  0  0  0  0  0
    5.7023   -4.4726   -1.2870 H   0  0  0  0  0  0  0  0  0  0  0  0
   -1.5312   -0.9552    3.1292 H   0  0  0  0  0  0  0  0  0  0  0  0
    5.0211   -3.9436   -3.5799 H   0  0  0  0  0  0  0  0  0  0  0  0
   -2.3998   -0.2705   -0.0711 C   0  0  0  0  0  0  0  0  0  0  0  0
   -2.4818   -0.3167    1.3033 C   0  0  0  0  0  0  0  0  0  0  0  0
   -1.4616   -0.9039    2.0508 C   0  0  0  0  0  0  0  0  0  0  0  0
   -0.3787   -1.4268    1.4946 N   0  0  0  0  0  0  0  0  0  0  0  0
   -3.1798    0.1624   -0.6776 H   0  0  0  0  0  0  0  0  0  0  0  0
   -3.3378    0.0909    1.8144 H   0  0  0  0  0  0  0  0  0  0  0  0
    2.3964   -2.6279   -1.9448 C   0  0  0  0  0  0  0  0  0  0  0  0
    2.7997   -2.9278   -0.6088 C   0  0  0  0  0  0  0  0  0  0  0  0
    1.8675   -2.4733    0.2994 N   0  0  0  0  0  0  0  0  0  0  0  0
    2.8815   -2.7696   -4.0256 H   0  0  0  0  0  0  0  0  0  0  0  0
    3.9930   -3.5975   -0.3682 C   0  0  0  0  0  0  0  0  0  0  0  0
    4.7734   -3.9495   -1.4517 C   0  0  0  0  0  0  0  0  0  0  0  0
    4.3869   -3.6507   -2.7576 C   0  0  0  0  0  0  0  0  0  0  0  0
    3.1995   -2.9949   -3.0176 C   0  0  0  0  0  0  0  0  0  0  0  0
    0.0494   -1.3280   -4.1076 C   0  0  0  0  0  0  0  0  0  0  0  0
   -1.1549   -0.7170   -4.3533 N   0  0  0  0  0  0  0  0  0  0  0  0
   -1.8566   -0.4165   -3.1808 C   0  0  0  0  0  0  0  0  0  0  0  0
   -2.9554    0.1163   -3.1776 O   0  0  0  0  0  0  0  0  0  0  0  0
    0.8356   -1.6876   -4.9651 O   0  0  0  0  0  0  0  0  0  0  0  0
   -1.0948   -4.9268   -0.0003 N   0  0  0  0  0  0  0  0  0  0  0  0
    1.1878   -2.4937    2.2923 Ru  0  0  0  0  0  0  0  0  0  0  0  0
    0.1452   -4.2765    1.8329 N   0  0  0  0  0  0  0  0  0  0  0  0
   -0.4700   -4.5522    0.8857 N   0  0  0  0  0  0  0  0  0  0  0  0
    2.3873   -0.5715    2.8419 S   0  0  0  0  0  0  0  0  0  0  0  0
    2.3180   -0.4916    4.6999 C   0  0  0  0  0  0  0  0  0  0  0  0
    1.0107   -1.0016    5.2635 C   0  0  0  0  0  0  0  0  0  0  0  0
    0.2850   -2.4962    4.4428 S   0  0  0  0  0  0  0  0  0  0  0  0
    1.1806   -3.8884    5.2399 C   0  0  0  0  0  0  0  0  0  0  0  0
    2.6536   -3.9789    4.9216 C   0  0  0  0  0  0  0  0  0  0  0  0
    3.0305   -3.7521    3.1090 S   0  0  0  0  0  0  0  0  0  0  0  0
    4.4184   -2.5166    3.2225 C   0  0  0  0  0  0  0  0  0  0  0  0
    4.1079   -1.1685    2.6073 C   0  0  0  0  0  0  0  0  0  0  0  0
    4.7651   -0.4001    3.0135 H   0  0  0  0  0  0  0  0  0  0  0  0
    2.4315    0.5649    4.9409 H   0  0  0  0  0  0  0  0  0  0  0  0
    3.1717   -1.0420    5.0783 H   0  0  0  0  0  0  0  0  0  0  0  0
    0.2220   -0.2592    5.1456 H   0  0  0  0  0  0  0  0  0  0  0  0
    1.1124   -1.2552    6.3169 H   0  0  0  0  0  0  0  0  0  0  0  0
    0.6369   -4.7610    4.8713 H   0  0  0  0  0  0  0  0  0  0  0  0
    1.0235   -3.7881    6.3132 H   0  0  0  0  0  0  0  0  0  0  0  0
    3.0185   -4.9783    5.1578 H   0  0  0  0  0  0  0  0  0  0  0  0
    3.2188   -3.2450    5.4880 H   0  0  0  0  0  0  0  0  0  0  0  0
    4.6916   -2.4380    4.2707 H   0  0  0  0  0  0  0  0  0  0  0  0
    5.2475   -2.9747    2.6845 H   0  0  0  0  0  0  0  0  0  0  0  0
    4.2089   -1.1939    1.5206 H   0  0  0  0  0  0  0  0  0  0  0  0
   -1.5102   -0.5229   -5.2774 H   0  0  0  0  0  0  0  0  0  0  0  0
 30 33  4  0  0  0  0
 32 33  4  0  0  0  0
  2  3  1  0  0  0  0
  5 17  1  0  0  0  0
  1 27  1  0  0  0  0
  6 25  1  0  0  0  0
  4 19  1  0  0  0  0
 11 12  4  0  0  0  0
 21 22  4  0  0  0  0
 23 24  4  0  0  0  0
  5  6  4  0  0  0  0
 13 14  4  0  0  0  0
 18 21  4  0  0  0  0
 17 24  4  0  0  0  0
 22 23  4  0  0  0  0
 12 13  4  0  0  0  0
 38 39  1  0  0  0  0
 35 36  1  0  0  0  0
 41 42  1  0  0  0  0
  2 11  4  0  0  0  0
  1  6  4  0  0  0  0
  3  4  4  0  0  0  0
 25 26  1  0  0  0  0
  3 14  4  0  0  0  0
 18 19  1  0  0  0  0
  1  2  4  0  0  0  0
 17 18  4  0  0  0  0
  4  5  4  0  0  0  0
 12 16  1  0  0  0  0
 26 27  1  0  0  0  0
  7 21  1  0  0  0  0
  8 22  1  0  0  0  0
 11 15  1  0  0  0  0
 10 23  1  0  0  0  0
 26 55  1  0  0  0  0
 20 24  1  0  0  0  0
  9 13  1  0  0  0  0
 35 45  1  0  0  0  0
 34 42  1  0  0  0  0
 39 51  1  0  0  0  0
 41 52  1  0  0  0  0
 37 38  1  0  0  0  0
 36 47  1  0  0  0  0
 38 49  1  0  0  0  0
 41 53  1  0  0  0  0
 36 46  1  0  0  0  0
 35 44  1  0  0  0  0
 42 43  1  0  0  0  0
 39 50  1  0  0  0  0
 42 54  1  0  0  0  0
 38 48  1  0  0  0  0
 36 37  1  0  0  0  0
 34 35  1  0  0  0  0
 40 41  1  0  0  0  0
 39 40  1  0  0  0  0
 25 29  2  0  0  0  0
 27 28  2  0  0  0  0
 31 32  1  0  0  0  0
 31 40  1  0  0  0  0
 31 14  1  0  0  0  0
 31 19  1  0  0  0  0
 31 34  1  0  0  0  0
 31 37  1  0  0  0  0
M  END
$$$$
