compound_2
  GFN2-xTB geometry (ORCA XTB2, DDCOSMO(water))

 54 62  0  0  0  0  0  0  0  0999 V2000
   -0.8622   -0.6454   -2.0756 C   0  0  0  0  0  0  0  0  0  0  0  0
   -1.2257   -0.7690   -0.7109 C   0  0  0  0  0  0  0  0  0  0  0  0
   -0.3363   -1.4940    0.1253 C   0  0  0  0  0  0  0  0  0  0  0  0
    0.8331   -2.0476   -0.4322 C   0  0  0  0  0  0  0  0  0  0  0  0
    1.1826   -1.9319   -1.8134 C   0  0  0  0  0  0  0  0  0  0  0  0
    0.3036   -1.2108   -2.6093 C   0  0  0  0  0  0  0  0  0  0  0  0
    4.0118   -4.3479    0.5946 H   0  0  0  0  0  0  0  0  0  0  0  0
    5.5301   -4.8167   -1.2967 H   0  0  0  0  0  0  0  0  0  0  0  0
   -1.8190   -1.4040    3.0322 H   0  0  0  0  0  0  0  0  0  0  0  0
    5.0679   -3.9444   -3.5347 H   0  0  0  0  0  0  0  0  0  0  0  0
   -2.3811   -0.2492   -0.1021 C   0  0  0  0  0  0  0  0  0  0  0  0
   -2.5840   -0.4770    1.2398 C   0  0  0  0  0  0  0  0  0  0  0  0
   -1.6527   -1.2125    1.9802 C   0  0  0  0  0  0  0  0  0  0  0  0
   -0.5549   -1.7040    1.4387 N   0  0  0  0  0  0  0  0  0  0  0  0
   -3.0838    0.3119   -0.6986 H   0  0  0  0  0  0  0  0  0  0  0  0
   -3.4622   -0.0944    1.7325 H   0  0  0  0  0  0  0  0  0  0  0  0
    2.4087   -2.6614   -1.9282 C   0  0  0  0  0  0  0  0  0  0  0  0
    2.6899   -3.1586   -0.6191 C   0  0  0  0  0  0  0  0  0  0  0  0
    1.7226   -2.7526    0.2700 N   0  0  0  0  0  0  0  0  0  0  0  0
    3.0562   -2.5682   -3.9715 H   0  0  0  0  0  0  0  0  0  0  0  0
    3.8140   -3.9416   -0.3852 C   0  0  0  0  0  0  0  0  0  0  0  0
    4.6519   -4.2086   -1.4493 C   0  0  0  0  0  0  0  0  0  0  0  0
    4.3890   -3.7143   -2.7277 C   0  0  0  0  0  0  0  0  0  0  0  0
    3.2707   -2.9448   -2.9815 C   0  0  0  0  0  0  0  0  0  0  0  0
    0.3426   -0.8885   -4.0520 C   0  0  0  0  0  0  0  0  0  0  0  0
   -0.7948   -0.1574   -4.2946 N   0  0  0  0  0  0  0  0  0  0  0  0
   -1.5725    0.0293   -3.1496 C   0  0  0  0  0  0  0  0  0  0  0  0
   -2.6215    0.6467   -3.1398 O   0  0  0  0  0  0  0  0  0  0  0  0
    1.1775   -1.1790   -4.8856 O   0  0  0  0  0  0  0  0  0  0  0  0
   -1.0466    0.2056   -5.2017 H   0  0  0  0  0  0  0  0  0  0  0  0
    1.0663   -2.7506    2.2696 Ru  0  0  0  0  0  0  0  0  0  0  0  0
    0.2282   -4.3844    2.0180 C   0  0  0  0  0  0  0  0  0  0  0  0
   -0.2887   -5.3820    1.7981 O   0  0  0  0  0  0  0  0  0  0  0  0
    2.1584   -0.6481    2.5092 S   0  0  0  0  0  0  0  0  0  0  0  0
    2.1422   -0.3378    4.3364 C   0  0  0  0  0  0  0  0  0  0  0  0
    0.8871   -0.8531    5.0055 C   0  0  0  0  0  0  0  0  0  0  0  0
    0.2770   -2.5082    4.4774 S   0  0  0  0  0  0  0  0  0  0  0  0
    1.3240   -3.7243    5.3659 C   0  0  0  0  0  0  0  0  0  0  0  0
    2.7802   -3.7665    4.9694 C   0  0  0  0  0  0  0  0  0  0  0  0
    3.0666   -3.7565    3.1304 S   0  0  0  0  0  0  0  0  0  0  0  0
    4.3335   -2.4166    2.9887 C   0  0  0  0  0  0  0  0  0  0  0  0
    3.8862   -1.1811    2.2338 C   0  0  0  0  0  0  0  0  0  0  0  0
    4.5250   -0.3337    2.4866 H   0  0  0  0  0  0  0  0  0  0  0  0
    2.1937    0.7452    4.4508 H   0  0  0  0  0  0  0  0  0  0  0  0
    3.0421   -0.7805    4.7518 H   0  0  0  0  0  0  0  0  0  0  0  0
    0.0392   -0.2041    4.7842 H   0  0  0  0  0  0  0  0  0  0  0  0
    1.0210   -0.9035    6.0857 H   0  0  0  0  0  0  0  0  0  0  0  0
    0.8242   -4.6710    5.1506 H   0  0  0  0  0  0  0  0  0  0  0  0
    1.2292   -3.5044    6.4296 H   0  0  0  0  0  0  0  0  0  0  0  0
    3.2226   -4.7010    5.3148 H   0  0  0  0  0  0  0  0  0  0  0  0
    3.3291   -2.9354    5.4030 H   0  0  0  0  0  0  0  0  0  0  0  0
    4.6678   -2.1820    3.9962 H   0  0  0  0  0  0  0  0  0  0  0  0
    5.1656   -2.8719    2.4509 H   0  0  0  0  0  0  0  0  0  0  0  0
    3.9266   -1.3407    1.1541 H   0  0  0  0  0  0  0  0  0  0  0  0
  2  3  1  0  0  0  0
  5 17  1  0  0  0  0
  1 27  1  0  0  0  0
  6 25  1  0  0  0  0
  4 19  1  0  0  0  0
 11 12  4  0  0  0  0
 21 22  4  0  0  0  0
 23 24  4  0  0  0  0
 13 14  4  0  0  0  0
  5  6  4  0  0  0  0
 18 21  4  0  0  0  0
 17 24  4  0  0  0  0
 22 23  4  0  0  0  0
 12 13  4  0  0  0  0
 38 39  1  0  0  0  0
  1  6  4  0  0  0  0
 35 36  1  0  0  0  0
 41 42  1  0  0  0  0
  2 11  4  0  0  0  0
  3  4  4  0  0  0  0
 25 26  1  0  0  0  0
  3 14  4  0  0  0  0
 18 19  1  0  0  0  0
  1  2  4  0  0  0  0
 17 18  4  0  0  0  0
  4  5  4  0  0  0  0
 26 27  1  0  0  0  0
 12 16  1  0  0  0  0
  7 21  1  0  0  0  0
 11 15  1  0  0  0  0
  8 22  1  0  0  0  0
 10 23  1  0  0  0  0
 26 30  1  0  0  0  0
 20 24  1  0  0  0  0
 34 42  1  0  0  0  0
  9 13  1  0  0  0  0
 37 38  1  0  0  0  0
 35 45  1  0  0  0  0
 39 51  1  0  0  0  0
 41 52  1  0  0  0  0
 36 37  1  0  0  0  0
 36 47  1  0  0  0  0
 39 50  1  0  0  0  0
 35 44  1  0  0  0  0
 41 53  1  0  0  0  0
 38 49  1  0  0  0  0
 36 46  1  0  0  0  0
 42 43  1  0  0  0  0
 38 48  1  0  0  0  0
 42 54  1  0  0  0  0
 40 41  1  0  0  0  0
 34 35  1  0  0  0  0
 39 40  1  0  0  0  0
 32 33  2  0  0  0  0
 25 29  2  0  0  0  0
 27 28  2  0  0  0  0
 31 32  1  0  0  0  0
 31 40  1  0  0  0  0
 31 14  1  0  0  0  0
 31 19  1  0  0  0  0
 31 34  1  0  0  0  0
 31 37  1  0  0  0  0
M  END
$$$$
