compound_1
  GFN2-xTB geometry (ORCA XTB2, DDCOSMO(water))

 43 53  0  0  0  0  0  0  0  0999 V2000
   -0.1793   -0.3478   -0.9171 C   0  0  0  0  0  0  0  0  0  0  0  0
   -1.2289   -0.8216   -0.0877 C   0  0  0  0  0  0  0  0  0  0  0  0
   -0.9708   -2.0169    0.6296 C   0  0  0  0  0  0  0  0  0  0  0  0
    0.2748   -2.6510    0.4863 C   0  0  0  0  0  0  0  0  0  0  0  0
    1.3256   -2.1756   -0.3526 C   0  0  0  0  0  0  0  0  0  0  0  0
    1.0550   -1.0023   -1.0450 C   0  0  0  0  0  0  0  0  0  0  0  0
    2.2239   -5.9396    1.7995 H   0  0  0  0  0  0  0  0  0  0  0  0
    4.5066   -6.1663    0.8596 H   0  0  0  0  0  0  0  0  0  0  0  0
   -3.7384   -2.5398    2.2703 H   0  0  0  0  0  0  0  0  0  0  0  0
    5.3956   -4.5057   -0.7020 H   0  0  0  0  0  0  0  0  0  0  0  0
   -2.4952   -0.2427    0.1028 C   0  0  0  0  0  0  0  0  0  0  0  0
   -3.3834   -0.8652    0.9517 C   0  0  0  0  0  0  0  0  0  0  0  0
   -3.0348   -2.0478    1.6135 C   0  0  0  0  0  0  0  0  0  0  0  0
   -1.8504   -2.6146    1.4620 N   0  0  0  0  0  0  0  0  0  0  0  0
   -2.7465    0.6685   -0.4172 H   0  0  0  0  0  0  0  0  0  0  0  0
   -4.3627   -0.4478    1.1169 H   0  0  0  0  0  0  0  0  0  0  0  0
    2.3665   -3.1445   -0.1806 C   0  0  0  0  0  0  0  0  0  0  0  0
    1.8535   -4.1131    0.7373 C   0  0  0  0  0  0  0  0  0  0  0  0
    0.5794   -3.7782    1.1341 N   0  0  0  0  0  0  0  0  0  0  0  0
    4.0337   -2.5524   -1.3909 H   0  0  0  0  0  0  0  0  0  0  0  0
    2.6222   -5.2065    1.1149 C   0  0  0  0  0  0  0  0  0  0  0  0
    3.8908   -5.3246    0.5824 C   0  0  0  0  0  0  0  0  0  0  0  0
    4.3987   -4.3787   -0.3092 C   0  0  0  0  0  0  0  0  0  0  0  0
    3.6484   -3.2871   -0.6992 C   0  0  0  0  0  0  0  0  0  0  0  0
    1.8843   -0.2208   -1.9898 C   0  0  0  0  0  0  0  0  0  0  0  0
    1.1028    0.8435   -2.3684 N   0  0  0  0  0  0  0  0  0  0  0  0
   -0.1560    0.8338   -1.7648 C   0  0  0  0  0  0  0  0  0  0  0  0
   -1.0052    1.6824   -1.9626 O   0  0  0  0  0  0  0  0  0  0  0  0
    3.0158   -0.4289   -2.3775 O   0  0  0  0  0  0  0  0  0  0  0  0
    1.4013    1.5572   -3.0165 H   0  0  0  0  0  0  0  0  0  0  0  0
   -1.0245   -4.3173    2.3715 Ru  0  0  0  0  0  0  0  0  0  0  0  0
   -1.7277   -5.3877    1.0566 C   0  0  0  0  0  0  0  0  0  0  0  0
   -2.1700   -6.0692    0.2358 O   0  0  0  0  0  0  0  0  0  0  0  0
    0.2527   -4.1559    4.2379 C   0  0  0  0  0  0  0  0  0  0  0  0
   -0.9027   -3.3766    4.4119 C   0  0  0  0  0  0  0  0  0  0  0  0
   -2.0401   -4.2449    4.3502 C   0  0  0  0  0  0  0  0  0  0  0  0
   -1.5614   -5.5681    4.1612 C   0  0  0  0  0  0  0  0  0  0  0  0
   -0.1407   -5.5146    4.0465 C   0  0  0  0  0  0  0  0  0  0  0  0
   -0.9244   -2.3349    4.7039 H   0  0  0  0  0  0  0  0  0  0  0  0
   -2.1557   -6.4716    4.2098 H   0  0  0  0  0  0  0  0  0  0  0  0
    0.5229   -6.3675    4.0580 H   0  0  0  0  0  0  0  0  0  0  0  0
    1.2733   -3.8094    4.3328 H   0  0  0  0  0  0  0  0  0  0  0  0
   -3.0500   -3.9754    4.6245 H   0  0  0  0  0  0  0  0  0  0  0  0
  1  2  1  0  0  0  0
  5 17  1  0  0  0  0
  1 27  1  0  0  0  0
  4 19  1  0  0  0  0
  6 25  1  0  0  0  0
 11 12  2  0  0  0  0
 23 24  4  0  0  0  0
 21 22  4  0  0  0  0
 13 14  2  0  0  0  0
  3 14  1  0  0  0  0
 18 21  4  0  0  0  0
  5  6  1  0  0  0  0
 17 24  4  0  0  0  0
 22 23  4  0  0  0  0
 12 13  1  0  0  0  0
  1  6  2  0  0  0  0
 34 35  4  0  0  0  0
  3  4  1  0  0  0  0
  2 11  1  0  0  0  0
 25 26  1  0  0  0  0
 18 19  1  0  0  0  0
  2  3  2  0  0  0  0
 36 37  4  0  0  0  0
  4  5  2  0  0  0  0
 37 38  4  0  0  0  0
 34 38  4  0  0  0  0
 17 18  4  0  0  0  0
 35 36  4  0  0  0  0
 26 27  1  0  0  0  0
 12 16  1  0  0  0  0
 11 15  1  0  0  0  0
 10 23  1  0  0  0  0
  8 22  1  0  0  0  0
  7 21  1  0  0  0  0
 26 30  1  0  0  0  0
 20 24  1  0  0  0  0
 36 43  1  0  0  0  0
 38 41  1  0  0  0  0
  9 13  1  0  0  0  0
 34 42  1  0  0  0  0
 35 39  1  0  0  0  0
 37 40  1  0  0  0  0
 32 33  2  0  0  0  0
 25 29  2  0  0  0  0
 27 28  2  0  0  0  0
 31 19  1  0  0  0  0
 31 32  1  0  0  0  0
 31 34  1  0  0  0  0
 31 36  1  0  0  0  0
 31 37  1  0  0  0  0
 31 38  1  0  0  0  0
 31 14  1  0  0  0  0
 31 35  1  0  0  0  0
M  END
$$$$
