compound_43
  GFN2-xTB geometry (ORCA XTB2, DDCOSMO(water))

 60 68  0  0  0  0  0  0  0  0999 V2000
   -0.6939   -5.4103    4.1700 C   0  0  0  0  0  0  0  0  0  0  0  0
   -1.7658    1.5292   -1.7208 N   0  0  0  0  0  0  0  0  0  0  0  0
   -0.0941   -6.2697    4.4266 H   0  0  0  0  0  0  0  0  0  0  0  0
    0.6798   -3.7003    4.5603 H   0  0  0  0  0  0  0  0  0  0  0  0
   -2.7282   -6.2973    3.8752 H   0  0  0  0  0  0  0  0  0  0  0  0
   -1.4461   -2.1563    4.2011 H   0  0  0  0  0  0  0  0  0  0  0  0
    1.7248   -5.3559    2.1358 H   0  0  0  0  0  0  0  0  0  0  0  0
    3.9130   -4.5472    1.2873 H   0  0  0  0  0  0  0  0  0  0  0  0
   -2.0751   -5.4323    3.8748 C   0  0  0  0  0  0  0  0  0  0  0  0
    3.9732   -2.4514   -0.0731 H   0  0  0  0  0  0  0  0  0  0  0  0
   -3.3129   -1.2919    0.0358 C   0  0  0  0  0  0  0  0  0  0  0  0
   -0.6646   -2.0940    0.3763 C   0  0  0  0  0  0  0  0  0  0  0  0
   -3.0105   -2.4649    0.7552 C   0  0  0  0  0  0  0  0  0  0  0  0
   -1.7147   -2.8624    0.9577 C   0  0  0  0  0  0  0  0  0  0  0  0
   -2.5590   -4.0795    3.8420 C   0  0  0  0  0  0  0  0  0  0  0  0
   -1.1058   -4.3754    2.1574 Ru  0  0  0  0  0  0  0  0  0  0  0  0
    0.6610   -2.6678    0.5823 C   0  0  0  0  0  0  0  0  0  0  0  0
   -3.8535   -3.0329    1.1364 H   0  0  0  0  0  0  0  0  0  0  0  0
    0.6546   -3.7997    1.3245 N   0  0  0  0  0  0  0  0  0  0  0  0
    1.8467   -1.2662   -0.5212 H   0  0  0  0  0  0  0  0  0  0  0  0
    1.7992   -4.4429    1.5553 C   0  0  0  0  0  0  0  0  0  0  0  0
    3.0143   -3.9937    1.0751 C   0  0  0  0  0  0  0  0  0  0  0  0
    3.0427   -2.8290    0.3186 C   0  0  0  0  0  0  0  0  0  0  0  0
    1.8570   -2.1657    0.0695 C   0  0  0  0  0  0  0  0  0  0  0  0
   -1.5285   -5.4746    0.7600 C   0  0  0  0  0  0  0  0  0  0  0  0
   -1.9173   -6.1180   -0.1233 O   0  0  0  0  0  0  0  0  0  0  0  0
   -0.2982   -4.0521    4.2588 C   0  0  0  0  0  0  0  0  0  0  0  0
   -1.4188   -3.2252    4.0405 C   0  0  0  0  0  0  0  0  0  0  0  0
   -2.6477    0.6911   -1.1814 C   0  0  0  0  0  0  0  0  0  0  0  0
   -3.9385    1.0137   -1.2986 N   0  0  0  0  0  0  0  0  0  0  0  0
   -4.8279    0.1818   -0.7709 C   0  0  0  0  0  0  0  0  0  0  0  0
   -4.6141   -0.9361   -0.1295 N   0  0  0  0  0  0  0  0  0  0  0  0
   -5.8673    0.4686   -0.8914 H   0  0  0  0  0  0  0  0  0  0  0  0
   -0.7813    1.3366   -1.6998 H   0  0  0  0  0  0  0  0  0  0  0  0
   -2.1177    2.3368   -2.2038 H   0  0  0  0  0  0  0  0  0  0  0  0
   -0.9315   -0.9349   -0.3228 C   0  0  0  0  0  0  0  0  0  0  0  0
   -2.2529   -0.5066   -0.4898 C   0  0  0  0  0  0  0  0  0  0  0  0
   -0.1223   -0.3590   -0.7403 H   0  0  0  0  0  0  0  0  0  0  0  0
   -3.9691   -3.7810    3.6832 C   0  0  0  0  0  0  0  0  0  0  0  0
   -4.7801   -4.6154    3.2935 O   0  0  0  0  0  0  0  0  0  0  0  0
   -4.4476   -2.5383    3.9341 O   0  0  0  0  0  0  0  0  0  0  0  0
   -3.8055   -1.7028    4.8506 C   0  0  0  0  0  0  0  0  0  0  0  0
   -3.4981   -0.3929    4.4701 C   0  0  0  0  0  0  0  0  0  0  0  0
   -2.9398    0.4611    5.4175 C   0  0  0  0  0  0  0  0  0  0  0  0
   -2.7019    0.0027    6.6997 C   0  0  0  0  0  0  0  0  0  0  0  0
   -3.0008   -1.2936    7.0771 C   0  0  0  0  0  0  0  0  0  0  0  0
   -3.5614   -2.1639    6.1499 C   0  0  0  0  0  0  0  0  0  0  0  0
   -3.7576   -0.0706    3.1712 O   0  0  0  0  0  0  0  0  0  0  0  0
   -2.6921    1.4751    5.1579 H   0  0  0  0  0  0  0  0  0  0  0  0
   -2.2696    0.6733    7.4244 H   0  0  0  0  0  0  0  0  0  0  0  0
   -2.8049   -1.6194    8.0833 H   0  0  0  0  0  0  0  0  0  0  0  0
   -3.8945   -3.4658    6.3826 O   0  0  0  0  0  0  0  0  0  0  0  0
   -3.7077   -3.9742    7.6938 C   0  0  0  0  0  0  0  0  0  0  0  0
   -4.2981   -3.4108    8.4189 H   0  0  0  0  0  0  0  0  0  0  0  0
   -2.6510   -3.9567    7.9688 H   0  0  0  0  0  0  0  0  0  0  0  0
   -4.0603   -5.0023    7.6521 H   0  0  0  0  0  0  0  0  0  0  0  0
   -3.5197    1.2689    2.7683 C   0  0  0  0  0  0  0  0  0  0  0  0
   -4.1053    1.9675    3.3684 H   0  0  0  0  0  0  0  0  0  0  0  0
   -3.8486    1.3171    1.7317 H   0  0  0  0  0  0  0  0  0  0  0  0
   -2.4562    1.5096    2.8297 H   0  0  0  0  0  0  0  0  0  0  0  0
 29 37  1  0  0  0  0
 15 39  1  0  0  0  0
 12 17  1  0  0  0  0
 39 41  1  0  0  0  0
 43 48  1  0  0  0  0
 47 52  1  0  0  0  0
  2 29  1  0  0  0  0
 31 32  2  0  0  0  0
 13 14  4  0  0  0  0
 12 36  4  0  0  0  0
 23 24  4  0  0  0  0
 21 22  4  0  0  0  0
 44 45  4  0  0  0  0
 45 46  4  0  0  0  0
 22 23  4  0  0  0  0
 46 47  4  0  0  0  0
 30 31  1  0  0  0  0
 43 44  4  0  0  0  0
 41 42  1  0  0  0  0
 17 24  4  0  0  0  0
 11 32  1  0  0  0  0
 19 21  4  0  0  0  0
 42 43  4  0  0  0  0
 36 37  4  0  0  0  0
 29 30  2  0  0  0  0
 42 47  4  0  0  0  0
 11 13  4  0  0  0  0
 27 28  4  0  0  0  0
  1  9  4  0  0  0  0
 52 53  1  0  0  0  0
 48 57  1  0  0  0  0
  1 27  4  0  0  0  0
 17 19  4  0  0  0  0
 11 37  4  0  0  0  0
 12 14  4  0  0  0  0
  2 34  1  0  0  0  0
  2 35  1  0  0  0  0
 44 49  1  0  0  0  0
 46 51  1  0  0  0  0
 20 24  1  0  0  0  0
  8 22  1  0  0  0  0
  9 15  4  0  0  0  0
 36 38  1  0  0  0  0
 10 23  1  0  0  0  0
 45 50  1  0  0  0  0
 15 28  4  0  0  0  0
  1  3  1  0  0  0  0
  6 28  1  0  0  0  0
  4 27  1  0  0  0  0
  5  9  1  0  0  0  0
  7 21  1  0  0  0  0
 31 33  1  0  0  0  0
 13 18  1  0  0  0  0
 53 56  1  0  0  0  0
 57 59  1  0  0  0  0
 57 58  1  0  0  0  0
 53 54  1  0  0  0  0
 53 55  1  0  0  0  0
 57 60  1  0  0  0  0
 25 26  2  0  0  0  0
 39 40  2  0  0  0  0
 16 19  1  0  0  0  0
 16 25  1  0  0  0  0
 16  1  1  0  0  0  0
 16  9  1  0  0  0  0
 16 27  1  0  0  0  0
 16 14  1  0  0  0  0
 16 28  1  0  0  0  0
M  END
$$$$
