compound_124
  GFN2-xTB geometry (ORCA XTB2, DDCOSMO(water))

 73 81  0  0  0  0  0  0  0  0999 V2000
   -4.0114   -4.8841   -0.2244 C   0  0  0  0  0  0  0  0  0  0  0  0
   -5.1346   -5.6396   -0.0024 C   0  0  0  0  0  0  0  0  0  0  0  0
   -5.0168   -7.0552    0.1591 C   0  0  0  0  0  0  0  0  0  0  0  0
   -3.7830   -7.6454    0.0152 C   0  0  0  0  0  0  0  0  0  0  0  0
   -2.6354   -6.8793   -0.2486 C   0  0  0  0  0  0  0  0  0  0  0  0
   -2.7364   -5.4656   -0.3117 C   0  0  0  0  0  0  0  0  0  0  0  0
   -4.1314   -3.8234   -0.3598 H   0  0  0  0  0  0  0  0  0  0  0  0
  -11.0448   -0.2175    2.5184 H   0  0  0  0  0  0  0  0  0  0  0  0
   -3.6491   -8.7111    0.0876 H   0  0  0  0  0  0  0  0  0  0  0  0
  -10.4009   -1.0764    3.7720 H   0  0  0  0  0  0  0  0  0  0  0  0
   -6.1569   -7.7226    0.4501 O   0  0  0  0  0  0  0  0  0  0  0  0
   -6.1012   -9.1222    0.6495 C   0  0  0  0  0  0  0  0  0  0  0  0
   -5.7786   -9.6388   -0.2573 H   0  0  0  0  0  0  0  0  0  0  0  0
   -7.1175   -9.4191    0.8980 H   0  0  0  0  0  0  0  0  0  0  0  0
   -5.4304   -9.3768    1.4729 H   0  0  0  0  0  0  0  0  0  0  0  0
   -6.3152   -4.9694    0.1278 O   0  0  0  0  0  0  0  0  0  0  0  0
   -8.5516   -4.3700   -0.4282 C   0  0  0  0  0  0  0  0  0  0  0  0
   -9.1354   -4.4688    0.9792 C   0  0  0  0  0  0  0  0  0  0  0  0
   -8.1526   -3.3634   -0.5868 H   0  0  0  0  0  0  0  0  0  0  0  0
   -8.3333   -4.5897    1.7086 H   0  0  0  0  0  0  0  0  0  0  0  0
   -9.7851   -5.3485    1.0329 H   0  0  0  0  0  0  0  0  0  0  0  0
   -9.3297   -4.5436   -1.1717 H   0  0  0  0  0  0  0  0  0  0  0  0
   -9.9102   -3.2690    1.3007 N   0  0  0  0  0  0  0  0  0  0  0  0
  -10.4817   -3.0515    0.4719 H   0  0  0  0  0  0  0  0  0  0  0  0
   -3.9615    0.5839    2.1706 F   0  0  0  0  0  0  0  0  0  0  0  0
  -10.8389   -3.4811    2.4209 C   0  0  0  0  0  0  0  0  0  0  0  0
  -11.6275   -2.1890    2.5753 C   0  0  0  0  0  0  0  0  0  0  0  0
  -10.6396   -1.1202    2.7763 N   0  0  0  0  0  0  0  0  0  0  0  0
  -11.5046   -4.3256    2.2218 H   0  0  0  0  0  0  0  0  0  0  0  0
  -10.2503   -3.6828    3.3213 H   0  0  0  0  0  0  0  0  0  0  0  0
  -12.3252   -2.2488    3.4140 H   0  0  0  0  0  0  0  0  0  0  0  0
  -12.1853   -1.9846    1.6554 H   0  0  0  0  0  0  0  0  0  0  0  0
   -1.4599   -7.5209   -0.4679 N   0  0  0  0  0  0  0  0  0  0  0  0
   -0.4453   -6.7704   -0.7949 C   0  0  0  0  0  0  0  0  0  0  0  0
   -0.4041   -5.4411   -0.8570 N   0  0  0  0  0  0  0  0  0  0  0  0
   -1.5153   -4.7730   -0.5628 C   0  0  0  0  0  0  0  0  0  0  0  0
   -6.1081   -2.7612    0.7136 H   0  0  0  0  0  0  0  0  0  0  0  0
    0.4825   -7.2797   -1.0269 H   0  0  0  0  0  0  0  0  0  0  0  0
   -6.8303   -3.3578    2.9826 H   0  0  0  0  0  0  0  0  0  0  0  0
   -1.3945   -3.4164   -0.6254 N   0  0  0  0  0  0  0  0  0  0  0  0
   -2.0471   -2.4337    0.1024 C   0  0  0  0  0  0  0  0  0  0  0  0
   -2.6453   -2.6985    1.3369 C   0  0  0  0  0  0  0  0  0  0  0  0
   -3.2783   -1.6850    2.0329 C   0  0  0  0  0  0  0  0  0  0  0  0
   -3.3122   -0.4024    1.5032 C   0  0  0  0  0  0  0  0  0  0  0  0
   -2.6881   -0.1163    0.3023 C   0  0  0  0  0  0  0  0  0  0  0  0
   -2.0531   -1.1264   -0.3922 C   0  0  0  0  0  0  0  0  0  0  0  0
   -2.6068   -3.6884    1.7604 H   0  0  0  0  0  0  0  0  0  0  0  0
   -0.5539   -3.1191   -1.1061 H   0  0  0  0  0  0  0  0  0  0  0  0
   -3.9747   -1.9985    3.5853 Cl  0  0  0  0  0  0  0  0  0  0  0  0
   -2.7058    0.8945   -0.0724 H   0  0  0  0  0  0  0  0  0  0  0  0
   -1.5635   -0.9103   -1.3276 H   0  0  0  0  0  0  0  0  0  0  0  0
   -8.8652   -1.4629    1.6835 Ru  0  0  0  0  0  0  0  0  0  0  0  0
   -6.7582   -0.7007    0.8426 C   0  0  0  0  0  0  0  0  0  0  0  0
   -7.3226    0.2756    1.7194 C   0  0  0  0  0  0  0  0  0  0  0  0
   -7.6688   -0.0434    3.0303 C   0  0  0  0  0  0  0  0  0  0  0  0
   -7.5456   -1.3828    3.4907 C   0  0  0  0  0  0  0  0  0  0  0  0
   -7.0260   -2.3559    2.6212 C   0  0  0  0  0  0  0  0  0  0  0  0
   -6.5944   -2.0056    1.3130 C   0  0  0  0  0  0  0  0  0  0  0  0
   -7.3871    1.3029    1.3776 H   0  0  0  0  0  0  0  0  0  0  0  0
   -7.9947    0.7392    3.7054 H   0  0  0  0  0  0  0  0  0  0  0  0
  -10.0575   -0.6103   -0.2396 Cl  0  0  0  0  0  0  0  0  0  0  0  0
   -7.1308    0.2083   -1.0524 H   0  0  0  0  0  0  0  0  0  0  0  0
   -6.3618   -2.0675   -1.6670 H   0  0  0  0  0  0  0  0  0  0  0  0
   -4.7947   -1.7563   -0.8647 H   0  0  0  0  0  0  0  0  0  0  0  0
   -7.7535   -1.6245    4.5263 H   0  0  0  0  0  0  0  0  0  0  0  0
   -6.2866   -0.2307   -0.5070 C   0  0  0  0  0  0  0  0  0  0  0  0
   -5.6378   -1.2965   -1.3930 C   0  0  0  0  0  0  0  0  0  0  0  0
   -5.1936   -0.7523   -2.6156 O   0  0  0  0  0  0  0  0  0  0  0  0
   -4.5228   -0.0831   -2.4216 H   0  0  0  0  0  0  0  0  0  0  0  0
   -5.5656    0.5789   -0.3472 H   0  0  0  0  0  0  0  0  0  0  0  0
   -7.4402   -5.3900   -0.6480 C   0  0  0  0  0  0  0  0  0  0  0  0
   -7.1539   -5.4231   -1.7061 H   0  0  0  0  0  0  0  0  0  0  0  0
   -7.7689   -6.3862   -0.3400 H   0  0  0  0  0  0  0  0  0  0  0  0
  6 36  1  0  0  0  0
  3 11  1  0  0  0  0
  2 16  1  0  0  0  0
 34 35  1  0  0  0  0
  1  2  4  0  0  0  0
 25 44  1  0  0  0  0
  3  4  4  0  0  0  0
 45 46  4  0  0  0  0
 42 43  4  0  0  0  0
 44 45  4  0  0  0  0
 43 44  4  0  0  0  0
 54 55  4  0  0  0  0
  5 33  1  0  0  0  0
 53 66  1  0  0  0  0
 53 58  4  0  0  0  0
 41 42  4  0  0  0  0
 41 46  4  0  0  0  0
 36 40  1  0  0  0  0
 43 49  1  0  0  0  0
  1  6  4  0  0  0  0
 56 57  4  0  0  0  0
  4  5  4  0  0  0  0
 67 68  1  0  0  0  0
 26 27  1  0  0  0  0
 11 12  1  0  0  0  0
 17 71  1  0  0  0  0
 17 18  1  0  0  0  0
 66 67  1  0  0  0  0
  5  6  4  0  0  0  0
 57 58  4  0  0  0  0
 55 56  4  0  0  0  0
 40 41  1  0  0  0  0
 16 71  1  0  0  0  0
 53 54  4  0  0  0  0
  2  3  4  0  0  0  0
  1  7  1  0  0  0  0
  4  9  1  0  0  0  0
 42 47  1  0  0  0  0
 46 51  1  0  0  0  0
 68 69  1  0  0  0  0
 45 50  1  0  0  0  0
 37 58  1  0  0  0  0
 39 57  1  0  0  0  0
 56 65  1  0  0  0  0
 34 38  1  0  0  0  0
 55 60  1  0  0  0  0
 40 48  1  0  0  0  0
 54 59  1  0  0  0  0
 12 14  1  0  0  0  0
 17 22  1  0  0  0  0
 18 20  1  0  0  0  0
 12 15  1  0  0  0  0
 12 13  1  0  0  0  0
 63 67  1  0  0  0  0
 27 31  1  0  0  0  0
 71 73  1  0  0  0  0
 26 29  1  0  0  0  0
  8 28  1  0  0  0  0
 17 19  1  0  0  0  0
 26 30  1  0  0  0  0
 18 21  1  0  0  0  0
 27 32  1  0  0  0  0
 66 70  1  0  0  0  0
 64 67  1  0  0  0  0
 10 28  1  0  0  0  0
 71 72  1  0  0  0  0
 62 66  1  0  0  0  0
 23 24  1  0  0  0  0
 18 23  1  0  0  0  0
 27 28  1  0  0  0  0
 23 26  1  0  0  0  0
 33 34  2  0  0  0  0
 35 36  2  0  0  0  0
 52 28  1  0  0  0  0
 52 23  1  0  0  0  0
 52 54  1  0  0  0  0
 52 55  1  0  0  0  0
 52 57  1  0  0  0  0
 52 61  1  0  0  0  0
 52 56  1  0  0  0  0
 52 58  1  0  0  0  0
M  END
$$$$
