compound_70
  GFN2-xTB geometry (ORCA XTB2, DDCOSMO(water))

 68 75  0  0  0  0  0  0  0  0999 V2000
   -0.5540   -2.8435    1.1883 Ru  0  0  0  0  0  0  0  0  0  0  0  0
    1.6749   -3.1097   -0.6794 C   0  0  0  0  0  0  0  0  0  0  0  0
    2.7315   -3.7347   -1.3389 C   0  0  0  0  0  0  0  0  0  0  0  0
    3.0910   -5.0146   -0.9630 C   0  0  0  0  0  0  0  0  0  0  0  0
    2.3896   -5.6579    0.0520 C   0  0  0  0  0  0  0  0  0  0  0  0
    1.3575   -4.9728    0.6590 C   0  0  0  0  0  0  0  0  0  0  0  0
    1.0101   -3.7309    0.3247 N   0  0  0  0  0  0  0  0  0  0  0  0
    2.0347   -4.3409    3.5696 H   0  0  0  0  0  0  0  0  0  0  0  0
    4.6349    2.3647   -9.8242 H   0  0  0  0  0  0  0  0  0  0  0  0
    2.6375   -6.6600    0.3556 H   0  0  0  0  0  0  0  0  0  0  0  0
    0.7758   -5.4467    1.4395 H   0  0  0  0  0  0  0  0  0  0  0  0
    1.1228   -1.8042   -0.9848 C   0  0  0  0  0  0  0  0  0  0  0  0
    1.5956   -0.9363   -1.9665 C   0  0  0  0  0  0  0  0  0  0  0  0
    0.9343    0.2572   -2.2185 C   0  0  0  0  0  0  0  0  0  0  0  0
   -0.2117    0.5539   -1.4773 C   0  0  0  0  0  0  0  0  0  0  0  0
   -0.6744   -0.3058   -0.4969 C   0  0  0  0  0  0  0  0  0  0  0  0
   -0.0155   -1.4935   -0.2158 C   0  0  0  0  0  0  0  0  0  0  0  0
    2.4604   -1.1999   -2.5546 H   0  0  0  0  0  0  0  0  0  0  0  0
    4.3910   -5.8224   -1.7629 Cl  0  0  0  0  0  0  0  0  0  0  0  0
   -0.7354    1.4803   -1.6619 H   0  0  0  0  0  0  0  0  0  0  0  0
   -1.5712   -0.0410    0.0453 H   0  0  0  0  0  0  0  0  0  0  0  0
   -1.9211   -3.9934   -0.4875 Cl  0  0  0  0  0  0  0  0  0  0  0  0
   -0.6272   -1.2735    2.7587 C   0  0  0  0  0  0  0  0  0  0  0  0
   -1.9757   -1.6859    2.6135 C   0  0  0  0  0  0  0  0  0  0  0  0
   -2.2388   -3.0663    2.7460 C   0  0  0  0  0  0  0  0  0  0  0  0
   -1.2625   -3.9736    3.2303 C   0  0  0  0  0  0  0  0  0  0  0  0
    0.0479   -3.5503    3.4484 C   0  0  0  0  0  0  0  0  0  0  0  0
    0.3826   -2.2043    3.1125 C   0  0  0  0  0  0  0  0  0  0  0  0
   -2.6377    0.2640    2.0967 H   0  0  0  0  0  0  0  0  0  0  0  0
   -0.3794   -0.2191    2.6886 H   0  0  0  0  0  0  0  0  0  0  0  0
   -3.2582   -3.4242    2.6341 H   0  0  0  0  0  0  0  0  0  0  0  0
    1.3864   -1.8451    3.3164 H   0  0  0  0  0  0  0  0  0  0  0  0
   -1.5594   -4.9863    3.4727 H   0  0  0  0  0  0  0  0  0  0  0  0
   -3.0859   -0.6767    2.4324 C   0  0  0  0  0  0  0  0  0  0  0  0
   -4.1125   -1.1226    1.3881 C   0  0  0  0  0  0  0  0  0  0  0  0
   -3.7591   -0.4299    3.7875 C   0  0  0  0  0  0  0  0  0  0  0  0
   -3.0330   -0.0704    4.5120 H   0  0  0  0  0  0  0  0  0  0  0  0
   -4.2018   -1.3490    4.1648 H   0  0  0  0  0  0  0  0  0  0  0  0
   -4.5439    0.3135    3.6790 H   0  0  0  0  0  0  0  0  0  0  0  0
   -3.6137   -1.5087    0.4960 H   0  0  0  0  0  0  0  0  0  0  0  0
   -4.7396   -0.2848    1.0967 H   0  0  0  0  0  0  0  0  0  0  0  0
   -4.7573   -1.9070    1.7774 H   0  0  0  0  0  0  0  0  0  0  0  0
    1.0756   -4.4401    4.0732 C   0  0  0  0  0  0  0  0  0  0  0  0
    0.7632   -5.4809    4.0530 H   0  0  0  0  0  0  0  0  0  0  0  0
    1.2115   -4.1423    5.1132 H   0  0  0  0  0  0  0  0  0  0  0  0
    1.4224    1.1811   -3.2532 C   0  0  0  0  0  0  0  0  0  0  0  0
    0.5343    1.8399   -4.1002 C   0  0  0  0  0  0  0  0  0  0  0  0
    0.9975    2.7024   -5.0748 C   0  0  0  0  0  0  0  0  0  0  0  0
    2.3573    2.9419   -5.2300 C   0  0  0  0  0  0  0  0  0  0  0  0
    3.2432    2.2858   -4.3839 C   0  0  0  0  0  0  0  0  0  0  0  0
    2.7860    1.4178   -3.4116 C   0  0  0  0  0  0  0  0  0  0  0  0
   -0.5258    1.6555   -4.0064 H   0  0  0  0  0  0  0  0  0  0  0  0
    0.2930    3.1992   -5.7266 H   0  0  0  0  0  0  0  0  0  0  0  0
    3.4890    0.9318   -2.7518 H   0  0  0  0  0  0  0  0  0  0  0  0
    4.3042    2.4625   -4.4872 H   0  0  0  0  0  0  0  0  0  0  0  0
    2.8593    3.8450   -6.3181 C   0  0  0  0  0  0  0  0  0  0  0  0
    3.1193    3.0465   -7.6014 C   0  0  0  0  0  0  0  0  0  0  0  0
    3.6286    3.9344   -8.7337 C   0  0  0  0  0  0  0  0  0  0  0  0
    3.8885    3.1349  -10.0049 C   0  0  0  0  0  0  0  0  0  0  0  0
    2.8918    4.7140   -8.9394 H   0  0  0  0  0  0  0  0  0  0  0  0
    4.2490    3.7842  -10.7990 H   0  0  0  0  0  0  0  0  0  0  0  0
    2.9750    2.6512  -10.3436 H   0  0  0  0  0  0  0  0  0  0  0  0
    3.7873    4.3265   -6.0041 H   0  0  0  0  0  0  0  0  0  0  0  0
    2.1220    4.6229   -6.5259 H   0  0  0  0  0  0  0  0  0  0  0  0
    2.1935    2.5552   -7.9105 H   0  0  0  0  0  0  0  0  0  0  0  0
    3.8526    2.2639   -7.3929 H   0  0  0  0  0  0  0  0  0  0  0  0
    4.5518    4.4258   -8.4188 H   0  0  0  0  0  0  0  0  0  0  0  0
    3.2464   -3.2257   -2.1352 H   0  0  0  0  0  0  0  0  0  0  0  0
  2 12  1  0  0  0  0
 14 46  1  0  0  0  0
  5  6  4  0  0  0  0
 50 51  4  0  0  0  0
 47 48  4  0  0  0  0
  3  4  4  0  0  0  0
 15 16  4  0  0  0  0
 27 43  1  0  0  0  0
 16 17  4  0  0  0  0
 13 14  4  0  0  0  0
 48 49  4  0  0  0  0
 49 50  4  0  0  0  0
 49 56  1  0  0  0  0
  4  5  4  0  0  0  0
 46 47  4  0  0  0  0
 12 13  4  0  0  0  0
 46 51  4  0  0  0  0
  2  3  4  0  0  0  0
 26 27  4  0  0  0  0
  6  7  4  0  0  0  0
 14 15  4  0  0  0  0
  4 19  1  0  0  0  0
 24 34  1  0  0  0  0
 12 17  4  0  0  0  0
 24 25  4  0  0  0  0
 58 59  1  0  0  0  0
 57 58  1  0  0  0  0
 23 24  4  0  0  0  0
 25 26  4  0  0  0  0
 23 28  4  0  0  0  0
 34 35  1  0  0  0  0
  2  7  4  0  0  0  0
 34 36  1  0  0  0  0
 56 57  1  0  0  0  0
 27 28  4  0  0  0  0
  5 10  1  0  0  0  0
  3 68  1  0  0  0  0
 13 18  1  0  0  0  0
 51 54  1  0  0  0  0
 15 20  1  0  0  0  0
 47 52  1  0  0  0  0
 50 55  1  0  0  0  0
 48 53  1  0  0  0  0
 16 21  1  0  0  0  0
  6 11  1  0  0  0  0
 26 33  1  0  0  0  0
 23 30  1  0  0  0  0
 28 32  1  0  0  0  0
 25 31  1  0  0  0  0
 35 41  1  0  0  0  0
 36 39  1  0  0  0  0
 43 44  1  0  0  0  0
 36 37  1  0  0  0  0
 59 61  1  0  0  0  0
 35 42  1  0  0  0  0
 36 38  1  0  0  0  0
  9 59  1  0  0  0  0
 59 62  1  0  0  0  0
  8 43  1  0  0  0  0
 43 45  1  0  0  0  0
 56 63  1  0  0  0  0
 56 64  1  0  0  0  0
 58 67  1  0  0  0  0
 58 60  1  0  0  0  0
 57 66  1  0  0  0  0
 35 40  1  0  0  0  0
 57 65  1  0  0  0  0
 29 34  1  0  0  0  0
  1  7  1  0  0  0  0
  1 22  1  0  0  0  0
  1 24  1  0  0  0  0
  1 27  1  0  0  0  0
  1 26  1  0  0  0  0
  1 17  1  0  0  0  0
  1 23  1  0  0  0  0
M  END
$$$$
