compound_24
  GFN2-xTB geometry (ORCA XTB2, DDCOSMO(water))

 44 54  0  0  0  0  0  0  0  0999 V2000
   -0.1995   -0.3608   -0.9257 C   0  0  0  0  0  0  0  0  0  0  0  0
   -1.2350   -0.8222   -0.0760 C   0  0  0  0  0  0  0  0  0  0  0  0
   -0.9729   -2.0150    0.6495 C   0  0  0  0  0  0  0  0  0  0  0  0
    0.2683   -2.6543    0.4913 C   0  0  0  0  0  0  0  0  0  0  0  0
    1.3091   -2.1877   -0.3703 C   0  0  0  0  0  0  0  0  0  0  0  0
    1.0320   -1.0225   -1.0677 C   0  0  0  0  0  0  0  0  0  0  0  0
    2.2412   -5.9315    1.8036 H   0  0  0  0  0  0  0  0  0  0  0  0
    4.5047   -6.1727    0.8297 H   0  0  0  0  0  0  0  0  0  0  0  0
   -3.7294   -2.4930    2.3477 H   0  0  0  0  0  0  0  0  0  0  0  0
   -2.9846   -3.9185    4.6757 H   0  0  0  0  0  0  0  0  0  0  0  0
   -2.4906   -0.2266    0.1247 C   0  0  0  0  0  0  0  0  0  0  0  0
   -3.3479   -0.8538    0.9997 C   0  0  0  0  0  0  0  0  0  0  0  0
   -3.0177   -2.0318    1.6781 C   0  0  0  0  0  0  0  0  0  0  0  0
   -1.8376   -2.6028    1.5033 N   0  0  0  0  0  0  0  0  0  0  0  0
   -2.7661    0.6803   -0.3890 H   0  0  0  0  0  0  0  0  0  0  0  0
   -4.5673   -0.3254    1.2330 F   0  0  0  0  0  0  0  0  0  0  0  0
    2.3512   -3.1581   -0.2048 C   0  0  0  0  0  0  0  0  0  0  0  0
    1.8500   -4.1153    0.7308 C   0  0  0  0  0  0  0  0  0  0  0  0
    0.5819   -3.7735    1.1434 N   0  0  0  0  0  0  0  0  0  0  0  0
    4.0116   -2.5837   -1.4513 H   0  0  0  0  0  0  0  0  0  0  0  0
    2.6249   -5.2045    1.1052 C   0  0  0  0  0  0  0  0  0  0  0  0
    3.8834   -5.3326    0.5559 C   0  0  0  0  0  0  0  0  0  0  0  0
    4.3831   -4.3948   -0.3581 C   0  0  0  0  0  0  0  0  0  0  0  0
    3.6202   -3.3000   -0.7456 C   0  0  0  0  0  0  0  0  0  0  0  0
    1.8477   -0.2499   -2.0338 C   0  0  0  0  0  0  0  0  0  0  0  0
    1.0615    0.8122   -2.4080 N   0  0  0  0  0  0  0  0  0  0  0  0
   -0.1863    0.8130   -1.7830 C   0  0  0  0  0  0  0  0  0  0  0  0
   -1.0369    1.6627   -1.9716 O   0  0  0  0  0  0  0  0  0  0  0  0
    2.9716   -0.4643   -2.4372 O   0  0  0  0  0  0  0  0  0  0  0  0
    6.0427   -5.3316   -0.5485 H   0  0  0  0  0  0  0  0  0  0  0  0
   -0.9988   -4.3147    2.3980 Ru  0  0  0  0  0  0  0  0  0  0  0  0
   -1.7124   -5.3858    1.0854 C   0  0  0  0  0  0  0  0  0  0  0  0
   -2.1661   -6.0614    0.2685 O   0  0  0  0  0  0  0  0  0  0  0  0
    0.3058   -4.2095    4.2454 C   0  0  0  0  0  0  0  0  0  0  0  0
   -0.8205   -3.3918    4.4364 C   0  0  0  0  0  0  0  0  0  0  0  0
   -1.9873   -4.2226    4.3913 C   0  0  0  0  0  0  0  0  0  0  0  0
   -1.5588   -5.5584    4.1873 C   0  0  0  0  0  0  0  0  0  0  0  0
   -0.1366   -5.5522    4.0477 C   0  0  0  0  0  0  0  0  0  0  0  0
   -0.8039   -2.3525    4.7369 H   0  0  0  0  0  0  0  0  0  0  0  0
   -2.1824   -6.4416    4.2402 H   0  0  0  0  0  0  0  0  0  0  0  0
    0.4962   -6.4283    4.0470 H   0  0  0  0  0  0  0  0  0  0  0  0
    1.3383   -3.8971    4.3252 H   0  0  0  0  0  0  0  0  0  0  0  0
    5.6246   -4.5268   -0.8913 O   0  0  0  0  0  0  0  0  0  0  0  0
    1.3516    1.5201   -3.0664 H   0  0  0  0  0  0  0  0  0  0  0  0
  2  3  1  0  0  0  0
  5 17  1  0  0  0  0
  1 27  1  0  0  0  0
 23 43  1  0  0  0  0
 12 16  1  0  0  0  0
  4 19  1  0  0  0  0
  6 25  1  0  0  0  0
 11 12  4  0  0  0  0
 21 22  4  0  0  0  0
 13 14  4  0  0  0  0
  5  6  4  0  0  0  0
 17 24  4  0  0  0  0
 18 21  4  0  0  0  0
 23 24  4  0  0  0  0
 12 13  4  0  0  0  0
 22 23  4  0  0  0  0
  2 11  4  0  0  0  0
 34 35  4  0  0  0  0
  3  4  4  0  0  0  0
  1  6  4  0  0  0  0
 25 26  1  0  0  0  0
 18 19  1  0  0  0  0
  3 14  4  0  0  0  0
  1  2  4  0  0  0  0
 36 37  4  0  0  0  0
 34 38  4  0  0  0  0
 37 38  4  0  0  0  0
 17 18  4  0  0  0  0
  4  5  4  0  0  0  0
 35 36  4  0  0  0  0
 26 27  1  0  0  0  0
 11 15  1  0  0  0  0
  7 21  1  0  0  0  0
 20 24  1  0  0  0  0
 26 44  1  0  0  0  0
  8 22  1  0  0  0  0
  9 13  1  0  0  0  0
 10 36  1  0  0  0  0
 30 43  1  0  0  0  0
 38 41  1  0  0  0  0
 34 42  1  0  0  0  0
 35 39  1  0  0  0  0
 37 40  1  0  0  0  0
 32 33  2  0  0  0  0
 25 29  2  0  0  0  0
 27 28  2  0  0  0  0
 31 19  1  0  0  0  0
 31 32  1  0  0  0  0
 31 34  1  0  0  0  0
 31 36  1  0  0  0  0
 31 37  1  0  0  0  0
 31 38  1  0  0  0  0
 31 14  1  0  0  0  0
 31 35  1  0  0  0  0
M  END
$$$$
